*======================================================================
* SPICE Model generated by Coilcraft
* Coilcraft Part Number : 016008C-N45
* Inductance = 0.45nH
*======================================================================
* Model Parameters:
*   Valid Frequency Range = 0.001GHz-26.5GHz
*   Ambient Temperature = 25 degC
*   Inductor Frequency Model
*   Use model for Frequency Domain simulations
*======================================================================
.subckt 016008C-N45_freq port1 port2 PARAMS: Cpar=0.056pF Ind=0.45nH
X1 port1 port2 Model2A PARAMS:
+ R1=126.1
+ R2=0.04
+ C= {Cpar}
+ K1=0.00000122
+ K2=0
+ K3= {Ind}
+ K4=0
+ K5=0
+ L=0
+ Is=0
+ a=0
+ L_Z0=0
+ L_EL=0
+ L_F0=0E6
+ PkZ=109.818901
.ends 016008C-N45_freq

*======================================================================
* SPICE Model generated by Coilcraft
* Coilcraft Part Number : 016008C-N45
* Inductance = 0.45nH
*======================================================================
* Model Parameters:
*   Valid Frequency Range = 0.001GHz-26.5GHz
*   Ambient Temperature = 25 degC
*   Inductor Impedance Model
*   Use model for Time Domain simulations
*======================================================================
.subckt 016008C-N45_imp port1 port2 PARAMS: Cpar=0.056pF Ind=0.45nH
X1 port1 port2 Model1D PARAMS:
+ R1=126.1
+ R2=0.04
+ C= {Cpar}
+ K1=0.00000122
+ K2=0
+ K3= {Ind}
+ K4=0
+ K5=0
+ L=0
+ Is=0
+ a=0
+ L_Z0=0
+ L_EL=0
+ L_F0=0E6
+ PkZ=109.818901
.ends 016008C-N45_imp

*======================================================================
* SPICE Model generated by Coilcraft
* Coilcraft Part Number : 016008C-N50
* Inductance = 0.5nH
*======================================================================
* Model Parameters:
*   Valid Frequency Range = 0.001GHz-26.5GHz
*   Ambient Temperature = 25 degC
*   Inductor Frequency Model
*   Use model for Frequency Domain simulations
*======================================================================
.subckt 016008C-N50_freq port1 port2 PARAMS: Cpar=0.035pF Ind=0.5nH
X1 port1 port2 Model2A PARAMS:
+ R1=63.1
+ R2=0.05
+ C= {Cpar}
+ K1=0.0000017
+ K2=0
+ K3= {Ind}
+ K4=0
+ K5=0
+ L=0
+ Is=0
+ a=0
+ L_Z0=0
+ L_EL=0
+ L_F0=0E6
+ PkZ=254.718237
.ends 016008C-N50_freq

*======================================================================
* SPICE Model generated by Coilcraft
* Coilcraft Part Number : 016008C-N50
* Inductance = 0.5nH
*======================================================================
* Model Parameters:
*   Valid Frequency Range = 0.001GHz-26.5GHz
*   Ambient Temperature = 25 degC
*   Inductor Impedance Model
*   Use model for Time Domain simulations
*======================================================================
.subckt 016008C-N50_imp port1 port2 PARAMS: Cpar=0.035pF Ind=0.5nH
X1 port1 port2 Model1D PARAMS:
+ R1=63.1
+ R2=0.05
+ C= {Cpar}
+ K1=0.0000017
+ K2=0
+ K3= {Ind}
+ K4=0
+ K5=0
+ L=0
+ Is=0
+ a=0
+ L_Z0=0
+ L_EL=0
+ L_F0=0E6
+ PkZ=254.718237
.ends 016008C-N50_imp

*======================================================================
* SPICE Model generated by Coilcraft
* Coilcraft Part Number : 016008C-1N1
* Inductance = 1.1nH
*======================================================================
* Model Parameters:
*   Valid Frequency Range = 0.001GHz-24GHz
*   Ambient Temperature = 25 degC
*   Inductor Frequency Model
*   Use model for Frequency Domain simulations
*======================================================================
.subckt 016008C-1N1_freq port1 port2 PARAMS: Cpar=0.043pF Ind=1.1nH
X1 port1 port2 Model2A PARAMS:
+ R1=19.4
+ R2=0.08
+ C= {Cpar}
+ K1=0.00000278
+ K2=0
+ K3= {Ind}
+ K4=0
+ K5=0
+ L=0
+ Is=0
+ a=0
+ L_Z0=0
+ L_EL=0
+ L_F0=0E6
+ PkZ=1300.03938
.ends 016008C-1N1_freq

*======================================================================
* SPICE Model generated by Coilcraft
* Coilcraft Part Number : 016008C-1N1
* Inductance = 1.1nH
*======================================================================
* Model Parameters:
*   Valid Frequency Range = 0.001GHz-24GHz
*   Ambient Temperature = 25 degC
*   Inductor Impedance Model
*   Use model for Time Domain simulations
*======================================================================
.subckt 016008C-1N1_imp port1 port2 PARAMS: Cpar=0.043pF Ind=1.1nH
X1 port1 port2 Model1D PARAMS:
+ R1=19.4
+ R2=0.08
+ C= {Cpar}
+ K1=0.00000278
+ K2=0
+ K3= {Ind}
+ K4=0
+ K5=0
+ L=0
+ Is=0
+ a=0
+ L_Z0=0
+ L_EL=0
+ L_F0=0E6
+ PkZ=1300.03938
.ends 016008C-1N1_imp

*======================================================================
* SPICE Model generated by Coilcraft
* Coilcraft Part Number : 016008C-1N2
* Inductance = 1.2nH
*======================================================================
* Model Parameters:
*   Valid Frequency Range = 0.001GHz-23GHz
*   Ambient Temperature = 25 degC
*   Inductor Frequency Model
*   Use model for Frequency Domain simulations
*======================================================================
.subckt 016008C-1N2_freq port1 port2 PARAMS: Cpar=0.045pF Ind=1.2nH
X1 port1 port2 Model2A PARAMS:
+ R1=14
+ R2=0.1
+ C= {Cpar}
+ K1=0.00000358
+ K2=0
+ K3= {Ind}
+ K4=0
+ K5=0
+ L=0
+ Is=0
+ a=0
+ L_Z0=0
+ L_EL=0
+ L_F0=0E6
+ PkZ=1842.52313
.ends 016008C-1N2_freq

*======================================================================
* SPICE Model generated by Coilcraft
* Coilcraft Part Number : 016008C-1N2
* Inductance = 1.2nH
*======================================================================
* Model Parameters:
*   Valid Frequency Range = 0.001GHz-23GHz
*   Ambient Temperature = 25 degC
*   Inductor Impedance Model
*   Use model for Time Domain simulations
*======================================================================
.subckt 016008C-1N2_imp port1 port2 PARAMS: Cpar=0.045pF Ind=1.2nH
X1 port1 port2 Model1D PARAMS:
+ R1=14
+ R2=0.1
+ C= {Cpar}
+ K1=0.00000358
+ K2=0
+ K3= {Ind}
+ K4=0
+ K5=0
+ L=0
+ Is=0
+ a=0
+ L_Z0=0
+ L_EL=0
+ L_F0=0E6
+ PkZ=1842.52313
.ends 016008C-1N2_imp

*======================================================================
* SPICE Model generated by Coilcraft
* Coilcraft Part Number : 016008C-1N3
* Inductance = 1.3nH
*======================================================================
* Model Parameters:
*   Valid Frequency Range = 0.001GHz-23GHz
*   Ambient Temperature = 25 degC
*   Inductor Frequency Model
*   Use model for Frequency Domain simulations
*======================================================================
.subckt 016008C-1N3_freq port1 port2 PARAMS: Cpar=0.039pF Ind=1.3nH
X1 port1 port2 Model2A PARAMS:
+ R1=15
+ R2=0.15
+ C= {Cpar}
+ K1=0.0000043
+ K2=0
+ K3= {Ind}
+ K4=0
+ K5=0
+ L=0
+ Is=0
+ a=0
+ L_Z0=0
+ L_EL=0
+ L_F0=0E6
+ PkZ=2138.23806
.ends 016008C-1N3_freq

*======================================================================
* SPICE Model generated by Coilcraft
* Coilcraft Part Number : 016008C-1N3
* Inductance = 1.3nH
*======================================================================
* Model Parameters:
*   Valid Frequency Range = 0.001GHz-23GHz
*   Ambient Temperature = 25 degC
*   Inductor Impedance Model
*   Use model for Time Domain simulations
*======================================================================
.subckt 016008C-1N3_imp port1 port2 PARAMS: Cpar=0.039pF Ind=1.3nH
X1 port1 port2 Model1D PARAMS:
+ R1=15
+ R2=0.15
+ C= {Cpar}
+ K1=0.0000043
+ K2=0
+ K3= {Ind}
+ K4=0
+ K5=0
+ L=0
+ Is=0
+ a=0
+ L_Z0=0
+ L_EL=0
+ L_F0=0E6
+ PkZ=2138.23806
.ends 016008C-1N3_imp

*======================================================================
* SPICE Model generated by Coilcraft
* Coilcraft Part Number : 016008C-2N0
* Inductance = 2nH
*======================================================================
* Model Parameters:
*   Valid Frequency Range = 0.001GHz-18GHz
*   Ambient Temperature = 25 degC
*   Inductor Frequency Model
*   Use model for Frequency Domain simulations
*======================================================================
.subckt 016008C-2N0_freq port1 port2 PARAMS: Cpar=0.052pF Ind=2nH
X1 port1 port2 Model2A PARAMS:
+ R1=5
+ R2=0.1
+ C= {Cpar}
+ K1=0.0000082
+ K2=0
+ K3= {Ind}
+ K4=0
+ K5=0
+ L=0
+ Is=0
+ a=0
+ L_Z0=0
+ L_EL=0
+ L_F0=0E6
+ PkZ=6386.5652
.ends 016008C-2N0_freq

*======================================================================
* SPICE Model generated by Coilcraft
* Coilcraft Part Number : 016008C-2N0
* Inductance = 2nH
*======================================================================
* Model Parameters:
*   Valid Frequency Range = 0.001GHz-18GHz
*   Ambient Temperature = 25 degC
*   Inductor Impedance Model
*   Use model for Time Domain simulations
*======================================================================
.subckt 016008C-2N0_imp port1 port2 PARAMS: Cpar=0.052pF Ind=2nH
X1 port1 port2 Model1D PARAMS:
+ R1=5
+ R2=0.1
+ C= {Cpar}
+ K1=0.0000082
+ K2=0
+ K3= {Ind}
+ K4=0
+ K5=0
+ L=0
+ Is=0
+ a=0
+ L_Z0=0
+ L_EL=0
+ L_F0=0E6
+ PkZ=6386.5652
.ends 016008C-2N0_imp

*======================================================================
* SPICE Model generated by Coilcraft
* Coilcraft Part Number : 016008C-2N2
* Inductance = 2.2nH
*======================================================================
* Model Parameters:
*   Valid Frequency Range = 0.001GHz-18GHz
*   Ambient Temperature = 25 degC
*   Inductor Frequency Model
*   Use model for Frequency Domain simulations
*======================================================================
.subckt 016008C-2N2_freq port1 port2 PARAMS: Cpar=0.035pF Ind=2.2nH
X1 port1 port2 Model2A PARAMS:
+ R1=14.8
+ R2=0.13
+ C= {Cpar}
+ K1=0.0000084
+ K2=0
+ K3= {Ind}
+ K4=0
+ K5=0
+ L=0
+ Is=0
+ a=0
+ L_Z0=0
+ L_EL=0
+ L_F0=0E6
+ PkZ=3952.55822
.ends 016008C-2N2_freq

*======================================================================
* SPICE Model generated by Coilcraft
* Coilcraft Part Number : 016008C-2N2
* Inductance = 2.2nH
*======================================================================
* Model Parameters:
*   Valid Frequency Range = 0.001GHz-18GHz
*   Ambient Temperature = 25 degC
*   Inductor Impedance Model
*   Use model for Time Domain simulations
*======================================================================
.subckt 016008C-2N2_imp port1 port2 PARAMS: Cpar=0.035pF Ind=2.2nH
X1 port1 port2 Model1D PARAMS:
+ R1=14.8
+ R2=0.13
+ C= {Cpar}
+ K1=0.0000084
+ K2=0
+ K3= {Ind}
+ K4=0
+ K5=0
+ L=0
+ Is=0
+ a=0
+ L_Z0=0
+ L_EL=0
+ L_F0=0E6
+ PkZ=3952.55822
.ends 016008C-2N2_imp

*======================================================================
* SPICE Model generated by Coilcraft
* Coilcraft Part Number : 016008C-2N4
* Inductance = 2.4nH
*======================================================================
* Model Parameters:
*   Valid Frequency Range = 0.001GHz-16GHz
*   Ambient Temperature = 25 degC
*   Inductor Frequency Model
*   Use model for Frequency Domain simulations
*======================================================================
.subckt 016008C-2N4_freq port1 port2 PARAMS: Cpar=0.042pF Ind=2.4nH
X1 port1 port2 Model2A PARAMS:
+ R1=18.6
+ R2=0.21
+ C= {Cpar}
+ K1=0.000011
+ K2=0
+ K3= {Ind}
+ K4=0
+ K5=0
+ L=0
+ Is=0
+ a=0
+ L_Z0=0
+ L_EL=0
+ L_F0=0E6
+ PkZ=2868.1929
.ends 016008C-2N4_freq

*======================================================================
* SPICE Model generated by Coilcraft
* Coilcraft Part Number : 016008C-2N4
* Inductance = 2.4nH
*======================================================================
* Model Parameters:
*   Valid Frequency Range = 0.001GHz-16GHz
*   Ambient Temperature = 25 degC
*   Inductor Impedance Model
*   Use model for Time Domain simulations
*======================================================================
.subckt 016008C-2N4_imp port1 port2 PARAMS: Cpar=0.042pF Ind=2.4nH
X1 port1 port2 Model1D PARAMS:
+ R1=18.6
+ R2=0.21
+ C= {Cpar}
+ K1=0.000011
+ K2=0
+ K3= {Ind}
+ K4=0
+ K5=0
+ L=0
+ Is=0
+ a=0
+ L_Z0=0
+ L_EL=0
+ L_F0=0E6
+ PkZ=2868.1929
.ends 016008C-2N4_imp

*======================================================================
* SPICE Model generated by Coilcraft
* Coilcraft Part Number : 016008C-3N3
* Inductance = 3.3nH
*======================================================================
* Model Parameters:
*   Valid Frequency Range = 0.001GHz-14GHz
*   Ambient Temperature = 25 degC
*   Inductor Frequency Model
*   Use model for Frequency Domain simulations
*======================================================================
.subckt 016008C-3N3_freq port1 port2 PARAMS: Cpar=0.046pF Ind=3.3nH
X1 port1 port2 Model2A PARAMS:
+ R1=11.1
+ R2=0.13
+ C= {Cpar}
+ K1=0.0000138
+ K2=0
+ K3= {Ind}
+ K4=0
+ K5=0
+ L=0
+ Is=0
+ a=0
+ L_Z0=0
+ L_EL=0
+ L_F0=0E6
+ PkZ=5667.90528
.ends 016008C-3N3_freq

*======================================================================
* SPICE Model generated by Coilcraft
* Coilcraft Part Number : 016008C-3N3
* Inductance = 3.3nH
*======================================================================
* Model Parameters:
*   Valid Frequency Range = 0.001GHz-14GHz
*   Ambient Temperature = 25 degC
*   Inductor Impedance Model
*   Use model for Time Domain simulations
*======================================================================
.subckt 016008C-3N3_imp port1 port2 PARAMS: Cpar=0.046pF Ind=3.3nH
X1 port1 port2 Model1D PARAMS:
+ R1=11.1
+ R2=0.13
+ C= {Cpar}
+ K1=0.0000138
+ K2=0
+ K3= {Ind}
+ K4=0
+ K5=0
+ L=0
+ Is=0
+ a=0
+ L_Z0=0
+ L_EL=0
+ L_F0=0E6
+ PkZ=5667.90528
.ends 016008C-3N3_imp

*======================================================================
* SPICE Model generated by Coilcraft
* Coilcraft Part Number : 016008C-3N6
* Inductance = 3.6nH
*======================================================================
* Model Parameters:
*   Valid Frequency Range = 0.001GHz-14GHz
*   Ambient Temperature = 25 degC
*   Inductor Frequency Model
*   Use model for Frequency Domain simulations
*======================================================================
.subckt 016008C-3N6_freq port1 port2 PARAMS: Cpar=0.039pF Ind=3.6nH
X1 port1 port2 Model2A PARAMS:
+ R1=20.4
+ R2=0.19
+ C= {Cpar}
+ K1=0.0000172
+ K2=0
+ K3= {Ind}
+ K4=0
+ K5=0
+ L=0
+ Is=0
+ a=0
+ L_Z0=0
+ L_EL=0
+ L_F0=0E6
+ PkZ=4131.65187
.ends 016008C-3N6_freq

*======================================================================
* SPICE Model generated by Coilcraft
* Coilcraft Part Number : 016008C-3N6
* Inductance = 3.6nH
*======================================================================
* Model Parameters:
*   Valid Frequency Range = 0.001GHz-14GHz
*   Ambient Temperature = 25 degC
*   Inductor Impedance Model
*   Use model for Time Domain simulations
*======================================================================
.subckt 016008C-3N6_imp port1 port2 PARAMS: Cpar=0.039pF Ind=3.6nH
X1 port1 port2 Model1D PARAMS:
+ R1=20.4
+ R2=0.19
+ C= {Cpar}
+ K1=0.0000172
+ K2=0
+ K3= {Ind}
+ K4=0
+ K5=0
+ L=0
+ Is=0
+ a=0
+ L_Z0=0
+ L_EL=0
+ L_F0=0E6
+ PkZ=4131.65187
.ends 016008C-3N6_imp

*======================================================================
* SPICE Model generated by Coilcraft
* Coilcraft Part Number : 016008C-3N8
* Inductance = 3.8nH
*======================================================================
* Model Parameters:
*   Valid Frequency Range = 0.001GHz-14GHz
*   Ambient Temperature = 25 degC
*   Inductor Frequency Model
*   Use model for Frequency Domain simulations
*======================================================================
.subckt 016008C-3N8_freq port1 port2 PARAMS: Cpar=0.038pF Ind=3.8nH
X1 port1 port2 Model2A PARAMS:
+ R1=15
+ R2=0.26
+ C= {Cpar}
+ K1=0.0000168
+ K2=0
+ K3= {Ind}
+ K4=0
+ K5=0
+ L=0
+ Is=0
+ a=0
+ L_Z0=0
+ L_EL=0
+ L_F0=0E6
+ PkZ=5912.48968
.ends 016008C-3N8_freq

*======================================================================
* SPICE Model generated by Coilcraft
* Coilcraft Part Number : 016008C-3N8
* Inductance = 3.8nH
*======================================================================
* Model Parameters:
*   Valid Frequency Range = 0.001GHz-14GHz
*   Ambient Temperature = 25 degC
*   Inductor Impedance Model
*   Use model for Time Domain simulations
*======================================================================
.subckt 016008C-3N8_imp port1 port2 PARAMS: Cpar=0.038pF Ind=3.8nH
X1 port1 port2 Model1D PARAMS:
+ R1=15
+ R2=0.26
+ C= {Cpar}
+ K1=0.0000168
+ K2=0
+ K3= {Ind}
+ K4=0
+ K5=0
+ L=0
+ Is=0
+ a=0
+ L_Z0=0
+ L_EL=0
+ L_F0=0E6
+ PkZ=5912.48968
.ends 016008C-3N8_imp

*======================================================================
* SPICE Model generated by Coilcraft
* Coilcraft Part Number : 016008C-3N9
* Inductance = 3.9nH
*======================================================================
* Model Parameters:
*   Valid Frequency Range = 0.001GHz-14GHz
*   Ambient Temperature = 25 degC
*   Inductor Frequency Model
*   Use model for Frequency Domain simulations
*======================================================================
.subckt 016008C-3N9_freq port1 port2 PARAMS: Cpar=0.034pF Ind=3.9nH
X1 port1 port2 Model2A PARAMS:
+ R1=7.5
+ R2=0.38
+ C= {Cpar}
+ K1=0.0000182
+ K2=0
+ K3= {Ind}
+ K4=0
+ K5=0
+ L=0
+ Is=0
+ a=0
+ L_Z0=0
+ L_EL=0
+ L_F0=0E6
+ PkZ=11902.8998
.ends 016008C-3N9_freq

*======================================================================
* SPICE Model generated by Coilcraft
* Coilcraft Part Number : 016008C-3N9
* Inductance = 3.9nH
*======================================================================
* Model Parameters:
*   Valid Frequency Range = 0.001GHz-14GHz
*   Ambient Temperature = 25 degC
*   Inductor Impedance Model
*   Use model for Time Domain simulations
*======================================================================
.subckt 016008C-3N9_imp port1 port2 PARAMS: Cpar=0.034pF Ind=3.9nH
X1 port1 port2 Model1D PARAMS:
+ R1=7.5
+ R2=0.38
+ C= {Cpar}
+ K1=0.0000182
+ K2=0
+ K3= {Ind}
+ K4=0
+ K5=0
+ L=0
+ Is=0
+ a=0
+ L_Z0=0
+ L_EL=0
+ L_F0=0E6
+ PkZ=11902.8998
.ends 016008C-3N9_imp

*======================================================================
* SPICE Model generated by Coilcraft
* Coilcraft Part Number : 016008C-4N3
* Inductance = 4.3nH
*======================================================================
* Model Parameters:
*   Valid Frequency Range = 0.001GHz-13GHz
*   Ambient Temperature = 25 degC
*   Inductor Frequency Model
*   Use model for Frequency Domain simulations
*======================================================================
.subckt 016008C-4N3_freq port1 port2 PARAMS: Cpar=0.041pF Ind=4.3nH
X1 port1 port2 Model2A PARAMS:
+ R1=13.9
+ R2=0.16
+ C= {Cpar}
+ K1=0.0000182
+ K2=0
+ K3= {Ind}
+ K4=0
+ K5=0
+ L=0
+ Is=0
+ a=0
+ L_Z0=0
+ L_EL=0
+ L_F0=0E6
+ PkZ=6605.53904
.ends 016008C-4N3_freq

*======================================================================
* SPICE Model generated by Coilcraft
* Coilcraft Part Number : 016008C-4N3
* Inductance = 4.3nH
*======================================================================
* Model Parameters:
*   Valid Frequency Range = 0.001GHz-13GHz
*   Ambient Temperature = 25 degC
*   Inductor Impedance Model
*   Use model for Time Domain simulations
*======================================================================
.subckt 016008C-4N3_imp port1 port2 PARAMS: Cpar=0.041pF Ind=4.3nH
X1 port1 port2 Model1D PARAMS:
+ R1=13.9
+ R2=0.16
+ C= {Cpar}
+ K1=0.0000182
+ K2=0
+ K3= {Ind}
+ K4=0
+ K5=0
+ L=0
+ Is=0
+ a=0
+ L_Z0=0
+ L_EL=0
+ L_F0=0E6
+ PkZ=6605.53904
.ends 016008C-4N3_imp

*======================================================================
* SPICE Model generated by Coilcraft
* Coilcraft Part Number : 016008C-4N7
* Inductance = 4.7nH
*======================================================================
* Model Parameters:
*   Valid Frequency Range = 0.001GHz-13GHz
*   Ambient Temperature = 25 degC
*   Inductor Frequency Model
*   Use model for Frequency Domain simulations
*======================================================================
.subckt 016008C-4N7_freq port1 port2 PARAMS: Cpar=0.038pF Ind=4.7nH
X1 port1 port2 Model2A PARAMS:
+ R1=8.9
+ R2=0.22
+ C= {Cpar}
+ K1=0.000017
+ K2=0
+ K3= {Ind}
+ K4=0
+ K5=0
+ L=0
+ Is=0
+ a=0
+ L_Z0=0
+ L_EL=0
+ L_F0=0E6
+ PkZ=11504.0165
.ends 016008C-4N7_freq

*======================================================================
* SPICE Model generated by Coilcraft
* Coilcraft Part Number : 016008C-4N7
* Inductance = 4.7nH
*======================================================================
* Model Parameters:
*   Valid Frequency Range = 0.001GHz-13GHz
*   Ambient Temperature = 25 degC
*   Inductor Impedance Model
*   Use model for Time Domain simulations
*======================================================================
.subckt 016008C-4N7_imp port1 port2 PARAMS: Cpar=0.038pF Ind=4.7nH
X1 port1 port2 Model1D PARAMS:
+ R1=8.9
+ R2=0.22
+ C= {Cpar}
+ K1=0.000017
+ K2=0
+ K3= {Ind}
+ K4=0
+ K5=0
+ L=0
+ Is=0
+ a=0
+ L_Z0=0
+ L_EL=0
+ L_F0=0E6
+ PkZ=11504.0165
.ends 016008C-4N7_imp

*======================================================================
* SPICE Model generated by Coilcraft
* Coilcraft Part Number : 016008C-5N1
* Inductance = 5.1nH
*======================================================================
* Model Parameters:
*   Valid Frequency Range = 0.001GHz-12GHz
*   Ambient Temperature = 25 degC
*   Inductor Frequency Model
*   Use model for Frequency Domain simulations
*======================================================================
.subckt 016008C-5N1_freq port1 port2 PARAMS: Cpar=0.045pF Ind=5.1nH
X1 port1 port2 Model2A PARAMS:
+ R1=17.8
+ R2=0.28
+ C= {Cpar}
+ K1=0.0000198
+ K2=0
+ K3= {Ind}
+ K4=0
+ K5=0
+ L=0
+ Is=0
+ a=0
+ L_Z0=0
+ L_EL=0
+ L_F0=0E6
+ PkZ=5723.77033
.ends 016008C-5N1_freq

*======================================================================
* SPICE Model generated by Coilcraft
* Coilcraft Part Number : 016008C-5N1
* Inductance = 5.1nH
*======================================================================
* Model Parameters:
*   Valid Frequency Range = 0.001GHz-12GHz
*   Ambient Temperature = 25 degC
*   Inductor Impedance Model
*   Use model for Time Domain simulations
*======================================================================
.subckt 016008C-5N1_imp port1 port2 PARAMS: Cpar=0.045pF Ind=5.1nH
X1 port1 port2 Model1D PARAMS:
+ R1=17.8
+ R2=0.28
+ C= {Cpar}
+ K1=0.0000198
+ K2=0
+ K3= {Ind}
+ K4=0
+ K5=0
+ L=0
+ Is=0
+ a=0
+ L_Z0=0
+ L_EL=0
+ L_F0=0E6
+ PkZ=5723.77033
.ends 016008C-5N1_imp

*======================================================================
* SPICE Model generated by Coilcraft
* Coilcraft Part Number : 016008C-5N3
* Inductance = 5.3nH
*======================================================================
* Model Parameters:
*   Valid Frequency Range = 0.001GHz-12GHz
*   Ambient Temperature = 25 degC
*   Inductor Frequency Model
*   Use model for Frequency Domain simulations
*======================================================================
.subckt 016008C-5N3_freq port1 port2 PARAMS: Cpar=0.038pF Ind=5.3nH
X1 port1 port2 Model2A PARAMS:
+ R1=10.9
+ R2=0.36
+ C= {Cpar}
+ K1=0.0000255
+ K2=0
+ K3= {Ind}
+ K4=0
+ K5=0
+ L=0
+ Is=0
+ a=0
+ L_Z0=0
+ L_EL=0
+ L_F0=0E6
+ PkZ=10260.0772
.ends 016008C-5N3_freq

*======================================================================
* SPICE Model generated by Coilcraft
* Coilcraft Part Number : 016008C-5N3
* Inductance = 5.3nH
*======================================================================
* Model Parameters:
*   Valid Frequency Range = 0.001GHz-12GHz
*   Ambient Temperature = 25 degC
*   Inductor Impedance Model
*   Use model for Time Domain simulations
*======================================================================
.subckt 016008C-5N3_imp port1 port2 PARAMS: Cpar=0.038pF Ind=5.3nH
X1 port1 port2 Model1D PARAMS:
+ R1=10.9
+ R2=0.36
+ C= {Cpar}
+ K1=0.0000255
+ K2=0
+ K3= {Ind}
+ K4=0
+ K5=0
+ L=0
+ Is=0
+ a=0
+ L_Z0=0
+ L_EL=0
+ L_F0=0E6
+ PkZ=10260.0772
.ends 016008C-5N3_imp

*======================================================================
* SPICE Model generated by Coilcraft
* Coilcraft Part Number : 016008C-5N8
* Inductance = 5.8nH
*======================================================================
* Model Parameters:
*   Valid Frequency Range = 0.001GHz-12GHz
*   Ambient Temperature = 25 degC
*   Inductor Frequency Model
*   Use model for Frequency Domain simulations
*======================================================================
.subckt 016008C-5N8_freq port1 port2 PARAMS: Cpar=0.035pF Ind=5.8nH
X1 port1 port2 Model2A PARAMS:
+ R1=14.9
+ R2=0.21
+ C= {Cpar}
+ K1=0.0000237
+ K2=0
+ K3= {Ind}
+ K4=0
+ K5=0
+ L=0
+ Is=0
+ a=0
+ L_Z0=0
+ L_EL=0
+ L_F0=0E6
+ PkZ=9527.91304
.ends 016008C-5N8_freq

*======================================================================
* SPICE Model generated by Coilcraft
* Coilcraft Part Number : 016008C-5N8
* Inductance = 5.8nH
*======================================================================
* Model Parameters:
*   Valid Frequency Range = 0.001GHz-12GHz
*   Ambient Temperature = 25 degC
*   Inductor Impedance Model
*   Use model for Time Domain simulations
*======================================================================
.subckt 016008C-5N8_imp port1 port2 PARAMS: Cpar=0.035pF Ind=5.8nH
X1 port1 port2 Model1D PARAMS:
+ R1=14.9
+ R2=0.21
+ C= {Cpar}
+ K1=0.0000237
+ K2=0
+ K3= {Ind}
+ K4=0
+ K5=0
+ L=0
+ Is=0
+ a=0
+ L_Z0=0
+ L_EL=0
+ L_F0=0E6
+ PkZ=9527.91304
.ends 016008C-5N8_imp

*======================================================================
* SPICE Model generated by Coilcraft
* Coilcraft Part Number : 016008C-6N0
* Inductance = 6nH
*======================================================================
* Model Parameters:
*   Valid Frequency Range = 0.001GHz-12GHz
*   Ambient Temperature = 25 degC
*   Inductor Frequency Model
*   Use model for Frequency Domain simulations
*======================================================================
.subckt 016008C-6N0_freq port1 port2 PARAMS: Cpar=0.033pF Ind=6nH
X1 port1 port2 Model2A PARAMS:
+ R1=11.4
+ R2=0.29
+ C= {Cpar}
+ K1=0.0000245
+ K2=0
+ K3= {Ind}
+ K4=0
+ K5=0
+ L=0
+ Is=0
+ a=0
+ L_Z0=0
+ L_EL=0
+ L_F0=0E6
+ PkZ=12986.9795
.ends 016008C-6N0_freq

*======================================================================
* SPICE Model generated by Coilcraft
* Coilcraft Part Number : 016008C-6N0
* Inductance = 6nH
*======================================================================
* Model Parameters:
*   Valid Frequency Range = 0.001GHz-12GHz
*   Ambient Temperature = 25 degC
*   Inductor Impedance Model
*   Use model for Time Domain simulations
*======================================================================
.subckt 016008C-6N0_imp port1 port2 PARAMS: Cpar=0.033pF Ind=6nH
X1 port1 port2 Model1D PARAMS:
+ R1=11.4
+ R2=0.29
+ C= {Cpar}
+ K1=0.0000245
+ K2=0
+ K3= {Ind}
+ K4=0
+ K5=0
+ L=0
+ Is=0
+ a=0
+ L_Z0=0
+ L_EL=0
+ L_F0=0E6
+ PkZ=12986.9795
.ends 016008C-6N0_imp

*======================================================================
* SPICE Model generated by Coilcraft
* Coilcraft Part Number : 016008C-6N2
* Inductance = 6.2nH
*======================================================================
* Model Parameters:
*   Valid Frequency Range = 0.001GHz-12GHz
*   Ambient Temperature = 25 degC
*   Inductor Frequency Model
*   Use model for Frequency Domain simulations
*======================================================================
.subckt 016008C-6N2_freq port1 port2 PARAMS: Cpar=0.033pF Ind=6.2nH
X1 port1 port2 Model2A PARAMS:
+ R1=18
+ R2=0.34
+ C= {Cpar}
+ K1=0.0000249
+ K2=0
+ K3= {Ind}
+ K4=0
+ K5=0
+ L=0
+ Is=0
+ a=0
+ L_Z0=0
+ L_EL=0
+ L_F0=0E6
+ PkZ=9116.95481
.ends 016008C-6N2_freq

*======================================================================
* SPICE Model generated by Coilcraft
* Coilcraft Part Number : 016008C-6N2
* Inductance = 6.2nH
*======================================================================
* Model Parameters:
*   Valid Frequency Range = 0.001GHz-12GHz
*   Ambient Temperature = 25 degC
*   Inductor Impedance Model
*   Use model for Time Domain simulations
*======================================================================
.subckt 016008C-6N2_imp port1 port2 PARAMS: Cpar=0.033pF Ind=6.2nH
X1 port1 port2 Model1D PARAMS:
+ R1=18
+ R2=0.34
+ C= {Cpar}
+ K1=0.0000249
+ K2=0
+ K3= {Ind}
+ K4=0
+ K5=0
+ L=0
+ Is=0
+ a=0
+ L_Z0=0
+ L_EL=0
+ L_F0=0E6
+ PkZ=9116.95481
.ends 016008C-6N2_imp

*======================================================================
* SPICE Model generated by Coilcraft
* Coilcraft Part Number : 016008C-6N8
* Inductance = 6.8nH
*======================================================================
* Model Parameters:
*   Valid Frequency Range = 0.001GHz-11GHz
*   Ambient Temperature = 25 degC
*   Inductor Frequency Model