*======================================================================
* SPICE Model generated by Coilcraft
* Coilcraft Part Number : 0402FL-200
* Inductance = 20nH
*======================================================================
* Model Parameters:
*   Valid Frequency Range = 0.001GHz-2GHz
*   Ambient Temperature = 25 degC
*   Inductor Frequency Model
*   Use model for Frequency Domain simulations
*======================================================================
.subckt 0402FL-200_freq port1 port2 PARAMS: Cpar=0.149pF Ind=0.0222uH
X1 port1 port2 Model1A PARAMS:
+ R1=0.000001
+ R2=0.042
+ C= {Cpar}
+ K1=0.000001
+ K2=0.00525
+ K3= {Ind}
+ K4=0.00052
+ K5=0.000005
+ L=0
+ Is=0
+ a=0
+ L_Z0=0
+ L_EL=0
+ L_F0=0E6
+ PkZ=294.187767
.ends 0402FL-200_freq

*======================================================================
* SPICE Model generated by Coilcraft
* Coilcraft Part Number : 0402FL-200
* Inductance = 20nH
*======================================================================
* Model Parameters:
*   Valid Frequency Range = 0.001GHz-2GHz
*   Ambient Temperature = 25 degC
*   Inductor Impedance Model
*   Use model for Time Domain simulations
*======================================================================
.subckt 0402FL-200_imp port1 port2 PARAMS: Cpar=0.116pF Ind=0.0222uH
X1 port1 port2 Model1D PARAMS:
+ R1=0.000001
+ R2=0.042
+ C= {Cpar}
+ K1=0.000001
+ K2=0.00525
+ K3= {Ind}
+ K4=0.00052
+ K5=0.000005
+ L=0
+ Is=0
+ a=0
+ L_Z0=0
+ L_EL=0
+ L_F0=0E6
+ PkZ=294.187767
.ends 0402FL-200_imp

*======================================================================
* SPICE Model generated by Coilcraft
* Coilcraft Part Number : 0402FL-360
* Inductance = 36nH
*======================================================================
* Model Parameters:
*   Valid Frequency Range = 0.001GHz-2.5GHz
*   Ambient Temperature = 25 degC
*   Inductor Frequency Model
*   Use model for Frequency Domain simulations
*======================================================================
.subckt 0402FL-360_freq port1 port2 PARAMS: Cpar=0.122pF Ind=0.039uH
X1 port1 port2 Model1A PARAMS:
+ R1=0.000001
+ R2=0.085
+ C= {Cpar}
+ K1=0.000001
+ K2=0.0104
+ K3= {Ind}
+ K4=0.0007
+ K5=0.000005
+ L=0
+ Is=0
+ a=0
+ L_Z0=0
+ L_EL=0
+ L_F0=0E6
+ PkZ=523.079025
.ends 0402FL-360_freq

*======================================================================
* SPICE Model generated by Coilcraft
* Coilcraft Part Number : 0402FL-360
* Inductance = 36nH
*======================================================================
* Model Parameters:
*   Valid Frequency Range = 0.001GHz-2.5GHz
*   Ambient Temperature = 25 degC
*   Inductor Impedance Model
*   Use model for Time Domain simulations
*======================================================================
.subckt 0402FL-360_imp port1 port2 PARAMS: Cpar=0.102pF Ind=0.039uH
X1 port1 port2 Model1D PARAMS:
+ R1=0.000001
+ R2=0.085
+ C= {Cpar}
+ K1=0.000001
+ K2=0.0104
+ K3= {Ind}
+ K4=0.0007
+ K5=0.000005
+ L=0
+ Is=0
+ a=0
+ L_Z0=0
+ L_EL=0
+ L_F0=0E6
+ PkZ=523.079025
.ends 0402FL-360_imp

*======================================================================
* SPICE Model generated by Coilcraft
* Coilcraft Part Number : 0402FL-560
* Inductance = 56nH
*======================================================================
* Model Parameters:
*   Valid Frequency Range = 0.001GHz-2.6GHz
*   Ambient Temperature = 25 degC
*   Inductor Frequency Model
*   Use model for Frequency Domain simulations
*======================================================================
.subckt 0402FL-560_freq port1 port2 PARAMS: Cpar=0.105pF Ind=0.061uH
X1 port1 port2 Model1A PARAMS:
+ R1=0.000001
+ R2=0.085
+ C= {Cpar}
+ K1=0.000001
+ K2=0.0176
+ K3= {Ind}
+ K4=0.00142
+ K5=0.000005
+ L=0
+ Is=0
+ a=0
+ L_Z0=0
+ L_EL=0
+ L_F0=0E6
+ PkZ=833.637286
.ends 0402FL-560_freq

*======================================================================
* SPICE Model generated by Coilcraft
* Coilcraft Part Number : 0402FL-560
* Inductance = 56nH
*======================================================================
* Model Parameters:
*   Valid Frequency Range = 0.001GHz-2.6GHz
*   Ambient Temperature = 25 degC
*   Inductor Impedance Model
*   Use model for Time Domain simulations
*======================================================================
.subckt 0402FL-560_imp port1 port2 PARAMS: Cpar=0.083pF Ind=0.061uH
X1 port1 port2 Model1D PARAMS:
+ R1=0.000001
+ R2=0.085
+ C= {Cpar}
+ K1=0.000001
+ K2=0.0176
+ K3= {Ind}
+ K4=0.00142
+ K5=0.000005
+ L=0
+ Is=0
+ a=0
+ L_Z0=0
+ L_EL=0
+ L_F0=0E6
+ PkZ=833.637286
.ends 0402FL-560_imp

*======================================================================
* SPICE Model generated by Coilcraft
* Coilcraft Part Number : 0402FL-770
* Inductance = 77nH
*======================================================================
* Model Parameters:
*   Valid Frequency Range = 0.001GHz-2.6GHz
*   Ambient Temperature = 25 degC
*   Inductor Frequency Model
*   Use model for Frequency Domain simulations
*======================================================================
.subckt 0402FL-770_freq port1 port2 PARAMS: Cpar=0.081pF Ind=0.08uH
X1 port1 port2 Model1A PARAMS:
+ R1=0.000001
+ R2=0.125
+ C= {Cpar}
+ K1=0.0000395
+ K2=0.0221
+ K3= {Ind}
+ K4=0.00133
+ K5=0.000005
+ L=0
+ Is=0
+ a=0
+ L_Z0=0
+ L_EL=0
+ L_F0=0E6
+ PkZ=1022.12895
.ends 0402FL-770_freq

*======================================================================
* SPICE Model generated by Coilcraft
* Coilcraft Part Number : 0402FL-770
* Inductance = 77nH
*======================================================================
* Model Parameters:
*   Valid Frequency Range = 0.001GHz-2.6GHz
*   Ambient Temperature = 25 degC
*   Inductor Impedance Model
*   Use model for Time Domain simulations
*======================================================================
.subckt 0402FL-770_imp port1 port2 PARAMS: Cpar=0.069pF Ind=0.08uH
X1 port1 port2 Model1D PARAMS:
+ R1=0.000001
+ R2=0.125
+ C= {Cpar}
+ K1=0.0000395
+ K2=0.0221
+ K3= {Ind}
+ K4=0.00133
+ K5=0.000005
+ L=0
+ Is=0
+ a=0
+ L_Z0=0
+ L_EL=0
+ L_F0=0E6
+ PkZ=1022.12895
.ends 0402FL-770_imp

*======================================================================
* SPICE Model generated by Coilcraft
* Coilcraft Part Number : 0402FL-101
* Inductance = 100nH
*======================================================================
* Model Parameters:
*   Valid Frequency Range = 0.001GHz-3GHz
*   Ambient Temperature = 25 degC
*   Inductor Frequency Model
*   Use model for Frequency Domain simulations
*======================================================================
.subckt 0402FL-101_freq port1 port2 PARAMS: Cpar=0.083pF Ind=0.109uH
X1 port1 port2 Model1A PARAMS:
+ R1=0.000001
+ R2=0.145
+ C= {Cpar}
+ K1=0.000001
+ K2=0.0305
+ K3= {Ind}
+ K4=0.00149
+ K5=0.000005
+ L=0
+ Is=0
+ a=0
+ L_Z0=0
+ L_EL=0
+ L_F0=0E6
+ PkZ=1289.49391
.ends 0402FL-101_freq

*======================================================================
* SPICE Model generated by Coilcraft
* Coilcraft Part Number : 0402FL-101
* Inductance = 100nH
*======================================================================
* Model Parameters:
*   Valid Frequency Range = 0.001GHz-3GHz
*   Ambient Temperature = 25 degC
*   Inductor Impedance Model
*   Use model for Time Domain simulations
*======================================================================
.subckt 0402FL-101_imp port1 port2 PARAMS: Cpar=0.073pF Ind=0.109uH
X1 port1 port2 Model1D PARAMS:
+ R1=0.000001
+ R2=0.145
+ C= {Cpar}
+ K1=0.000001
+ K2=0.0305
+ K3= {Ind}
+ K4=0.00149
+ K5=0.000005
+ L=0
+ Is=0
+ a=0
+ L_Z0=0
+ L_EL=0
+ L_F0=0E6
+ PkZ=1289.49391
.ends 0402FL-101_imp

*======================================================================
* SPICE Model generated by Coilcraft
* Coilcraft Part Number : 0402FL-121
* Inductance = 120nH
*======================================================================
* Model Parameters:
*   Valid Frequency Range = 0.001GHz-3GHz
*   Ambient Temperature = 25 degC
*   Inductor Frequency Model
*   Use model for Frequency Domain simulations
*======================================================================
.subckt 0402FL-121_freq port1 port2 PARAMS: Cpar=0.072pF Ind=0.135uH
X1 port1 port2 Model1A PARAMS:
+ R1=0.000001
+ R2=0.165
+ C= {Cpar}
+ K1=0.000016
+ K2=0.0335
+ K3= {Ind}
+ K4=0.00195
+ K5=0.000005
+ L=0
+ Is=0
+ a=0
+ L_Z0=0
+ L_EL=0
+ L_F0=0E6
+ PkZ=1393.01281
.ends 0402FL-121_freq

*======================================================================
* SPICE Model generated by Coilcraft
* Coilcraft Part Number : 0402FL-121
* Inductance = 120nH
*======================================================================
* Model Parameters:
*   Valid Frequency Range = 0.001GHz-3GHz
*   Ambient Temperature = 25 degC
*   Inductor Impedance Model
*   Use model for Time Domain simulations
*======================================================================
.subckt 0402FL-121_imp port1 port2 PARAMS: Cpar=0.063pF Ind=0.135uH
X1 port1 port2 Model1D PARAMS:
+ R1=0.000001
+ R2=0.165
+ C= {Cpar}
+ K1=0.000016
+ K2=0.0335
+ K3= {Ind}
+ K4=0.00195
+ K5=0.000005
+ L=0
+ Is=0
+ a=0
+ L_Z0=0
+ L_EL=0
+ L_F0=0E6
+ PkZ=1393.01281
.ends 0402FL-121_imp

*======================================================================
* SPICE Model generated by Coilcraft
* Coilcraft Part Number : 0402FL-151
* Inductance = 150nH
*======================================================================
* Model Parameters:
*   Valid Frequency Range = 0.001GHz-3GHz
*   Ambient Temperature = 25 degC
*   Inductor Frequency Model
*   Use model for Frequency Domain simulations
*======================================================================
.subckt 0402FL-151_freq port1 port2 PARAMS: Cpar=0.072pF Ind=0.173uH
X1 port1 port2 Model1A PARAMS:
+ R1=0.000001
+ R2=0.18
+ C= {Cpar}
+ K1=0.000016
+ K2=0.0414
+ K3= {Ind}
+ K4=0.0039
+ K5=0.000005
+ L=0
+ Is=0
+ a=0
+ L_Z0=0
+ L_EL=0
+ L_F0=0E6
+ PkZ=1652.33599
.ends 0402FL-151_freq

*======================================================================
* SPICE Model generated by Coilcraft
* Coilcraft Part Number : 0402FL-151
* Inductance = 150nH
*======================================================================
* Model Parameters:
*   Valid Frequency Range = 0.001GHz-3GHz
*   Ambient Temperature = 25 degC
*   Inductor Impedance Model
*   Use model for Time Domain simulations
*======================================================================
.subckt 0402FL-151_imp port1 port2 PARAMS: Cpar=0.058pF Ind=0.173uH
X1 port1 port2 Model1D PARAMS:
+ R1=0.000001
+ R2=0.18
+ C= {Cpar}
+ K1=0.000016
+ K2=0.0414
+ K3= {Ind}
+ K4=0.0039
+ K5=0.000005
+ L=0
+ Is=0
+ a=0
+ L_Z0=0
+ L_EL=0
+ L_F0=0E6
+ PkZ=1652.33599
.ends 0402FL-151_imp

*======================================================================
* SPICE Model generated by Coilcraft
* Coilcraft Part Number : 0402FL-161
* Inductance = 160nH
*======================================================================
* Model Parameters:
*   Valid Frequency Range = 0.001GHz-3GHz
*   Ambient Temperature = 25 degC
*   Inductor Frequency Model
*   Use model for Frequency Domain simulations
*======================================================================
.subckt 0402FL-161_freq port1 port2 PARAMS: Cpar=0.071pF Ind=0.175uH
X1 port1 port2 Model1A PARAMS:
+ R1=0.000001
+ R2=0.235
+ C= {Cpar}
+ K1=0.000016
+ K2=0.0505
+ K3= {Ind}
+ K4=0.00231
+ K5=0.000005
+ L=0
+ Is=0
+ a=0
+ L_Z0=0
+ L_EL=0
+ L_F0=0E6
+ PkZ=1967.70062
.ends 0402FL-161_freq

*======================================================================
* SPICE Model generated by Coilcraft
* Coilcraft Part Number : 0402FL-161
* Inductance = 160nH
*======================================================================
* Model Parameters:
*   Valid Frequency Range = 0.001GHz-3GHz
*   Ambient Temperature = 25 degC
*   Inductor Impedance Model
*   Use model for Time Domain simulations
*======================================================================
.subckt 0402FL-161_imp port1 port2 PARAMS: Cpar=0.063pF Ind=0.175uH
X1 port1 port2 Model1D PARAMS:
+ R1=0.000001
+ R2=0.235
+ C= {Cpar}
+ K1=0.000016
+ K2=0.0505
+ K3= {Ind}
+ K4=0.00231
+ K5=0.000005
+ L=0
+ Is=0
+ a=0
+ L_Z0=0
+ L_EL=0
+ L_F0=0E6
+ PkZ=1967.70062
.ends 0402FL-161_imp

*======================================================================
* SPICE Model generated by Coilcraft
* Coilcraft Part Number : 0402FL-181
* Inductance = 180nH
*======================================================================
* Model Parameters:
*   Valid Frequency Range = 0.001GHz-3GHz
*   Ambient Temperature = 25 degC
*   Inductor Frequency Model
*   Use model for Frequency Domain simulations
*======================================================================
.subckt 0402FL-181_freq port1 port2 PARAMS: Cpar=0.0555pF Ind=0.195uH
X1 port1 port2 Model1A PARAMS:
+ R1=0.000001
+ R2=0.2
+ C= {Cpar}
+ K1=0.00008
+ K2=0.048
+ K3= {Ind}
+ K4=0.00369
+ K5=0.000005
+ L=0
+ Is=0
+ a=0
+ L_Z0=0
+ L_EL=0
+ L_F0=0E6
+ PkZ=1962.35957
.ends 0402FL-181_freq

*======================================================================
* SPICE Model generated by Coilcraft
* Coilcraft Part Number : 0402FL-181
* Inductance = 180nH
*======================================================================
* Model Parameters:
*   Valid Frequency Range = 0.001GHz-3GHz
*   Ambient Temperature = 25 degC
*   Inductor Impedance Model
*   Use model for Time Domain simulations
*======================================================================
.subckt 0402FL-181_imp port1 port2 PARAMS: Cpar=0.046pF Ind=0.195uH
X1 port1 port2 Model1D PARAMS:
+ R1=0.000001
+ R2=0.2
+ C= {Cpar}
+ K1=0.00008
+ K2=0.048
+ K3= {Ind}
+ K4=0.00369
+ K5=0.000005
+ L=0
+ Is=0
+ a=0
+ L_Z0=0
+ L_EL=0
+ L_F0=0E6
+ PkZ=1962.35957
.ends 0402FL-181_imp

*======================================================================
* SPICE Model generated by Coilcraft
* Coilcraft Part Number : 0402FL-221
* Inductance = 220nH
*======================================================================
* Model Parameters:
*   Valid Frequency Range = 0.001GHz-3GHz
*   Ambient Temperature = 25 degC
*   Inductor Frequency Model
*   Use model for Frequency Domain simulations
*======================================================================
.subckt 0402FL-221_freq port1 port2 PARAMS: Cpar=0.0587pF Ind=0.265uH
X1 port1 port2 Model1A PARAMS:
+ R1=0.000001
+ R2=0.29
+ C= {Cpar}
+ K1=0.00008
+ K2=0.069
+ K3= {Ind}
+ K4=0.0063
+ K5=0.000005
+ L=0
+ Is=0
+ a=0
+ L_Z0=0
+ L_EL=0
+ L_F0=0E6
+ PkZ=2607.47918
.ends 0402FL-221_freq

*======================================================================
* SPICE Model generated by Coilcraft
* Coilcraft Part Number : 0402FL-221
* Inductance = 220nH
*======================================================================
* Model Parameters:
*   Valid Frequency Range = 0.001GHz-3GHz
*   Ambient Temperature = 25 degC
*   Inductor Impedance Model
*   Use model for Time Domain simulations
*======================================================================
.subckt 0402FL-221_imp port1 port2 PARAMS: Cpar=0.046pF Ind=0.265uH
X1 port1 port2 Model1D PARAMS:
+ R1=0.000001
+ R2=0.29
+ C= {Cpar}
+ K1=0.00008
+ K2=0.069
+ K3= {Ind}
+ K4=0.0063
+ K5=0.000005
+ L=0
+ Is=0
+ a=0
+ L_Z0=0
+ L_EL=0
+ L_F0=0E6
+ PkZ=2607.47918
.ends 0402FL-221_imp

*======================================================================
* SPICE Model generated by Coilcraft
* Coilcraft Part Number : 0402FL-271
* Inductance = 270nH
*======================================================================
* Model Parameters:
*   Valid Frequency Range = 0.001GHz-3GHz
*   Ambient Temperature = 25 degC
*   Inductor Frequency Model
*   Use model for Frequency Domain simulations
*======================================================================
.subckt 0402FL-271_freq port1 port2 PARAMS: Cpar=0.0608pF Ind=0.305uH
X1 port1 port2 Model1A PARAMS:
+ R1=0.000001
+ R2=0.3
+ C= {Cpar}
+ K1=0.00008
+ K2=0.0885
+ K3= {Ind}
+ K4=0.008
+ K5=0.000005
+ L=0
+ Is=0
+ a=0
+ L_Z0=0
+ L_EL=0
+ L_F0=0E6
+ PkZ=3219.5327
.ends 0402FL-271_freq

*======================================================================
* SPICE Model generated by Coilcraft
* Coilcraft Part Number : 0402FL-271
* Inductance = 270nH
*======================================================================
* Model Parameters:
*   Valid Frequency Range = 0.001GHz-3GHz
*   Ambient Temperature = 25 degC
*   Inductor Impedance Model
*   Use model for Time Domain simulations
*======================================================================
.subckt 0402FL-271_imp port1 port2 PARAMS: Cpar=0.047pF Ind=0.305uH
X1 port1 port2 Model1D PARAMS:
+ R1=0.000001
+ R2=0.3
+ C= {Cpar}
+ K1=0.00008
+ K2=0.0885
+ K3= {Ind}
+ K4=0.008
+ K5=0.000005
+ L=0
+ Is=0
+ a=0
+ L_Z0=0
+ L_EL=0
+ L_F0=0E6
+ PkZ=3219.5327
.ends 0402FL-271_imp

*======================================================================
* SPICE Model generated by Coilcraft
* Coilcraft Part Number : 0402FL-331
* Inductance = 330nH
*======================================================================
* Model Parameters:
*   Valid Frequency Range = 0.001GHz-3GHz
*   Ambient Temperature = 25 degC
*   Inductor Frequency Model
*   Use model for Frequency Domain simulations
*======================================================================
.subckt 0402FL-331_freq port1 port2 PARAMS: Cpar=0.065pF Ind=0.374uH
X1 port1 port2 Model1A PARAMS:
+ R1=0.000001
+ R2=0.475
+ C= {Cpar}
+ K1=0.00008
+ K2=0.115
+ K3= {Ind}
+ K4=0.0107
+ K5=0.000005
+ L=0
+ Is=0
+ a=0
+ L_Z0=0
+ L_EL=0
+ L_F0=0E6
+ PkZ=3931.066
.ends 0402FL-331_freq

*======================================================================
* SPICE Model generated by Coilcraft
* Coilcraft Part Number : 0402FL-331
* Inductance = 330nH
*======================================================================
* Model Parameters:
*   Valid Frequency Range = 0.001GHz-3GHz
*   Ambient Temperature = 25 degC
*   Inductor Impedance Model
*   Use model for Time Domain simulations
*======================================================================
.subckt 0402FL-331_imp port1 port2 PARAMS: Cpar=0.049pF Ind=0.374uH
X1 port1 port2 Model1D PARAMS:
+ R1=0.000001
+ R2=0.475
+ C= {Cpar}
+ K1=0.00008
+ K2=0.115
+ K3= {Ind}
+ K4=0.0107
+ K5=0.000005
+ L=0
+ Is=0
+ a=0
+ L_Z0=0
+ L_EL=0
+ L_F0=0E6
+ PkZ=3931.066
.ends 0402FL-331_imp

*======================================================================
* SPICE Model generated by Coilcraft
* Coilcraft Part Number : 0402FL-391
* Inductance = 390nH
*======================================================================
* Model Parameters:
*   Valid Frequency Range = 0.001GHz-3GHz
*   Ambient Temperature = 25 degC
*   Inductor Frequency Model
*   Use model for Frequency Domain simulations
*======================================================================
.subckt 0402FL-391_freq port1 port2 PARAMS: Cpar=0.065pF Ind=0.435uH
X1 port1 port2 Model1A PARAMS:
+ R1=0.000001
+ R2=0.56
+ C= {Cpar}
+ K1=0.00008
+ K2=0.132
+ K3= {Ind}
+ K4=0.0135
+ K5=0.000005
+ L=0
+ Is=0
+ a=0
+ L_Z0=0
+ L_EL=0
+ L_F0=0E6
+ PkZ=4372.14711
.ends 0402FL-391_freq

*======================================================================
* SPICE Model generated by Coilcraft
* Coilcraft Part Number : 0402FL-391
* Inductance = 390nH
*======================================================================
* Model Parameters:
*   Valid Frequency Range = 0.001GHz-3GHz
*   Ambient Temperature = 25 degC
*   Inductor Impedance Model
*   Use model for Time Domain simulations
*======================================================================
.subckt 0402FL-391_imp port1 port2 PARAMS: Cpar=0.048pF Ind=0.435uH
X1 port1 port2 Model1D PARAMS:
+ R1=0.000001
+ R2=0.56
+ C= {Cpar}
+ K1=0.00008
+ K2=0.132
+ K3= {Ind}
+ K4=0.0135
+ K5=0.000005
+ L=0
+ Is=0
+ a=0
+ L_Z0=0
+ L_EL=0
+ L_F0=0E6
+ PkZ=4372.14711
.ends 0402FL-391_imp

*======================================================================
* SPICE Model generated by Coilcraft
* Coilcraft Part Number : 0402FL-421
* Inductance = 420nH
*======================================================================
* Model Parameters:
*   Valid Frequency Range = 0.001GHz-3GHz
*   Ambient Temperature = 25 degC
*   Inductor Frequency Model
*   Use model for Frequency Domain simulations
*======================================================================
.subckt 0402FL-421_freq port1 port2 PARAMS: Cpar=0.0575pF Ind=0.456uH
X1 port1 port2 Model1A PARAMS:
+ R1=0.000001
+ R2=0.57
+ C= {Cpar}
+ K1=0.00008
+ K2=0.127
+ K3= {Ind}
+ K4=0.0086
+ K5=0.000005
+ L=0
+ Is=0
+ a=0
+ L_Z0=0
+ L_EL=0
+ L_F0=0E6
+ PkZ=4153.07544
.ends 0402FL-421_freq

*======================================================================
* SPICE Model generated by Coilcraft
* Coilcraft Part Number : 0402FL-421
* Inductance = 420nH
*======================================================================
* Model Parameters:
*   Valid Frequency Range = 0.001GHz-3GHz
*   Ambient Temperature = 25 degC
*   Inductor Impedance Model
*   Use model for Time Domain simulations
*======================================================================
.subckt 0402FL-421_imp port1 port2 PARAMS: Cpar=0.048pF Ind=0.456uH
X1 port1 port2 Model1D PARAMS:
+ R1=0.000001
+ R2=0.57
+ C= {Cpar}
+ K1=0.00008
+ K2=0.127
+ K3= {Ind}
+ K4=0.0086
+ K5=0.000005
+ L=0
+ Is=0
+ a=0
+ L_Z0=0
+ L_EL=0
+ L_F0=0E6
+ PkZ=4153.07544
.ends 0402FL-421_imp

*======================================================================
* SPICE Model generated by Coilcraft
* Coilcraft Part Number : 0402FL-471
* Inductance = 470nH
*======================================================================
* Model Parameters:
*   Valid Frequency Range = 0.001GHz-3GHz
*   Ambient Temperature = 25 degC
*   Inductor Frequency Model
*   Use model for Frequency Domain simulations
*======================================================================
.subckt 0402FL-471_freq port1 port2 PARAMS: Cpar=0.057pF Ind=0.526uH
X1 port1 port2 Model1A PARAMS:
+ R1=0.000001
+ R2=0.8
+ C= {Cpar}
+ K1=0.0001
+ K2=0.185
+ K3= {Ind}
+ K4=0.0146
+ K5=0.000001
+ L=0
+ Is=0
+ a=0
+ L_Z0=0
+ L_EL=0
+ L_F0=0E6
+ PkZ=5896.6757
.ends 0402FL-471_freq

*======================================================================
* SPICE Model generated by Coilcraft
* Coilcraft Part Number : 0402FL-471
* Inductance = 470nH
*======================================================================
* Model Parameters:
*   Valid Frequency Range = 0.001GHz-3GHz
*   Ambient Temperature = 25 degC
*   Inductor Impedance Model
*   Use model for Time Domain simulations
*======================================================================
.subckt 0402FL-471_imp port1 port2 PARAMS: Cpar=0.046pF Ind=0.526uH
X1 port1 port2 Model1D PARAMS:
+ R1=0.000001
+ R2=0.8
+ C= {Cpar}
+ K1=0.0001
+ K2=0.185
+ K3= {Ind}
+ K4=0.0146
+ K5=0.000001
+ L=0
+ Is=0
+ a=0
+ L_Z0=0
+ L_EL=0
+ L_F0=0E6
+ PkZ=5896.6757
.ends 0402FL-471_imp

*======================================================================
* SPICE Model generated by Coilcraft
* Coilcraft Part Number : 0402FL-561
* Inductance = 560nH
*======================================================================
* Model Parameters:
*   Valid Frequency Range = 0.001GHz-3GHz
*   Ambient Temperature = 25 degC
*   Inductor Frequency Model
*   Use model for Frequency Domain simulations
*======================================================================
.subckt 0402FL-561_freq port1 port2 PARAMS: Cpar=0.056pF Ind=0.6uH
X1 port1 port2 Model1A PARAMS:
+ R1=0.000001
+ R2=0.97
+ C= {Cpar}
+ K1=0.000171
+ K2=0.189
+ K3= {Ind}
+ K4=0.0144
+ K5=0.000001
+ L=0
+ Is=0
+ a=0
+ L_Z0=0
+ L_EL=0
+ L_F0=0E6
+ PkZ=5802.37639
.ends 0402FL-561_freq

*======================================================================
* SPICE Model generated by Coilcraft
* Coilcraft Part Number : 0402FL-561
* Inductance = 560nH
*======================================================================
* Model Parameters:
*   Valid Frequency Range = 0.001GHz-3GHz
*   Ambient Temperature = 25 degC
*   Inductor Impedance Model
*   Use model for Time Domain simulations
*======================================================================
.subckt 0402FL-561_imp port1 port2 PARAMS: Cpar=0.047pF Ind=0.6uH
X1 port1 port2 Model1D PARAMS:
+ R1=0.000001
+ R2=0.97
+ C= {Cpar}
+ K1=0.000171
+ K2=0.189
+ K3= {Ind}
+ K4=0.0144
+ K5=0.000001
+ L=0
+ Is=0
+ a=0
+ L_Z0=0
+ L_EL=0
+ L_F0=0E6
+ PkZ=5802.37639
.ends 0402FL-561_imp

*======================================================================
* SPICE Model generated by Coilcraft
* Coilcraft Impedance Inductor Model
*======================================================================
* Model Parameters:
*   Valid Frequency Range Varies by Inductor
*   Ambient Temperature = 25 degC
*   Time Domain Inductor Impedance Model
*======================================================================
.subckt Model1D Lin Lout PARAMS:
+ R1=1
+ R2=1
+ C=1
+ K3=1
+ PkZ=1
R2 Lin N001 {R2}
R3 N001 Lout {PkZ}
C1 N001 N002 {C}
R1 N002 Lout {R1}
L1 N001 Lout {K3}
.ends Model1D

*======================================================================
* SPICE Model generated by Coilcraft
* Coilcraft Power Inductor Model
*======================================================================
* Model Parameters:
*   Valid Frequency Range Varies by Inductor
*   Ambient Temperature = 25 degC
*   DC Bias Current = 0 A
*   Frequency Dependent Inductor Model
*======================================================================
.subckt Model1A Lin Lout PARAMS:
+ R1=1
+ R2=1
+ C=1
+ K1=1
+ K2=1
+ K3=1
+ K4=1
+ K5=1
R2 N001 Lin {R2}
R1 Lout N002 {R1}
C1 N002 N001 {C}
G_Rvar2 N001 Lout LAPLACE { V(N001, Lout) } {1/K2/(-S*S/4/PI^2)^0.25}
G_Rvar1 N001 N003 LAPLACE { V(N001, N003) } {1/K1/(-S*S/4/PI^2)^0.25}
G_Lvar N003 Lout  LAPLACE { V(N003, Lout) } {1/(S*1e-6*({K3*1e6}-({K4}*LOG({K5}*(sqrt(-S*S)/(2*pi))))))}
*This large resistance to ground has been added to prevent a floating node error
R3 N003 0 100Meg
.ends Model1A


.subckt Coilcraft_Inductor Lin Lout
R1 Lout Lin 100Meg
.ends Coilcraft_Inductor
