*======================================================================
* SPICE Model generated by Coilcraft
* Coilcraft Part Number : 0603DC-1N6
* Inductance = 1.6nH
*======================================================================
* Model Parameters:
*   Valid Frequency Range = 0.001GHz-26.5GHz
*   Ambient Temperature = 25 degC
*   Inductor Frequency Model
*   Use model for Frequency Domain simulations
*======================================================================
.subckt 0603DC-1N6_freq port1 port2 PARAMS: Cpar=0.072pF Ind=1.6nH
X1 port1 port2 Model2A PARAMS:
+ R1=12
+ R2=0.026
+ C= {Cpar}
+ K1=0.0000052
+ K2=0
+ K3= {Ind}
+ K4=0
+ K5=0
+ L=0
+ Is=0
+ a=0
+ L_Z0=0
+ L_EL=0
+ L_F0=0E6
+ PkZ=1764.76351
.ends 0603DC-1N6_freq

*======================================================================
* SPICE Model generated by Coilcraft
* Coilcraft Part Number : 0603DC-1N6
* Inductance = 1.6nH
*======================================================================
* Model Parameters:
*   Valid Frequency Range = 0.001GHz-26.5GHz
*   Ambient Temperature = 25 degC
*   Inductor Impedance Model
*   Use model for Time Domain simulations
*======================================================================
.subckt 0603DC-1N6_imp port1 port2 PARAMS: Cpar=0.072pF Ind=1.6nH
X1 port1 port2 Model1D PARAMS:
+ R1=12
+ R2=0.026
+ C= {Cpar}
+ K1=0.0000052
+ K2=0
+ K3= {Ind}
+ K4=0
+ K5=0
+ L=0
+ Is=0
+ a=0
+ L_Z0=0
+ L_EL=0
+ L_F0=0E6
+ PkZ=1764.76351
.ends 0603DC-1N6_imp

*======================================================================
* SPICE Model generated by Coilcraft
* Coilcraft Part Number : 0603DC-2N7
* Inductance = 2.7nH
*======================================================================
* Model Parameters:
*   Valid Frequency Range = 0.001GHz-26.5GHz
*   Ambient Temperature = 25 degC
*   Inductor Frequency Model
*   Use model for Frequency Domain simulations
*======================================================================
.subckt 0603DC-2N7_freq port1 port2 PARAMS: Cpar=0.068pF Ind=2.7nH
X1 port1 port2 Model2A PARAMS:
+ R1=34
+ R2=0.026
+ C= {Cpar}
+ K1=0.00000481
+ K2=0
+ K3= {Ind}
+ K4=0
+ K5=0
+ L=0
+ Is=0
+ a=0
+ L_Z0=0
+ L_EL=0
+ L_F0=0E6
+ PkZ=1166.83785
.ends 0603DC-2N7_freq

*======================================================================
* SPICE Model generated by Coilcraft
* Coilcraft Part Number : 0603DC-2N7
* Inductance = 2.7nH
*======================================================================
* Model Parameters:
*   Valid Frequency Range = 0.001GHz-26.5GHz
*   Ambient Temperature = 25 degC
*   Inductor Impedance Model
*   Use model for Time Domain simulations
*======================================================================
.subckt 0603DC-2N7_imp port1 port2 PARAMS: Cpar=0.068pF Ind=2.7nH
X1 port1 port2 Model1D PARAMS:
+ R1=34
+ R2=0.026
+ C= {Cpar}
+ K1=0.00000481
+ K2=0
+ K3= {Ind}
+ K4=0
+ K5=0
+ L=0
+ Is=0
+ a=0
+ L_Z0=0
+ L_EL=0
+ L_F0=0E6
+ PkZ=1166.83785
.ends 0603DC-2N7_imp

*======================================================================
* SPICE Model generated by Coilcraft
* Coilcraft Part Number : 0603DC-3N3
* Inductance = 3.3nH
*======================================================================
* Model Parameters:
*   Valid Frequency Range = 0.001GHz-14GHz
*   Ambient Temperature = 25 degC
*   Inductor Frequency Model
*   Use model for Frequency Domain simulations
*======================================================================
.subckt 0603DC-3N3_freq port1 port2 PARAMS: Cpar=0.074pF Ind=3.3nH
X1 port1 port2 Model2A PARAMS:
+ R1=15
+ R2=0.032
+ C= {Cpar}
+ K1=0.00000523
+ K2=0
+ K3= {Ind}
+ K4=0
+ K5=0
+ L=0
+ Is=0
+ a=0
+ L_Z0=0
+ L_EL=0
+ L_F0=0E6
+ PkZ=2879.19521
.ends 0603DC-3N3_freq

*======================================================================
* SPICE Model generated by Coilcraft
* Coilcraft Part Number : 0603DC-3N3
* Inductance = 3.3nH
*======================================================================
* Model Parameters:
*   Valid Frequency Range = 0.001GHz-14GHz
*   Ambient Temperature = 25 degC
*   Inductor Impedance Model
*   Use model for Time Domain simulations
*======================================================================
.subckt 0603DC-3N3_imp port1 port2 PARAMS: Cpar=0.074pF Ind=3.3nH
X1 port1 port2 Model1D PARAMS:
+ R1=15
+ R2=0.032
+ C= {Cpar}
+ K1=0.00000523
+ K2=0
+ K3= {Ind}
+ K4=0
+ K5=0
+ L=0
+ Is=0
+ a=0
+ L_Z0=0
+ L_EL=0
+ L_F0=0E6
+ PkZ=2879.19521
.ends 0603DC-3N3_imp

*======================================================================
* SPICE Model generated by Coilcraft
* Coilcraft Part Number : 0603DC-3N9
* Inductance = 3.9nH
*======================================================================
* Model Parameters:
*   Valid Frequency Range = 0.001GHz-16GHz
*   Ambient Temperature = 25 degC
*   Inductor Frequency Model
*   Use model for Frequency Domain simulations
*======================================================================
.subckt 0603DC-3N9_freq port1 port2 PARAMS: Cpar=0.027pF Ind=3.9nH
X1 port1 port2 Model2A PARAMS:
+ R1=1.65
+ R2=0.031
+ C= {Cpar}
+ K1=0.00000558
+ K2=0
+ K3= {Ind}
+ K4=0
+ K5=0
+ L=0
+ Is=0
+ a=0
+ L_Z0=0
+ L_EL=0
+ L_F0=0E6
+ PkZ=61599.4909
.ends 0603DC-3N9_freq

*======================================================================
* SPICE Model generated by Coilcraft
* Coilcraft Part Number : 0603DC-3N9
* Inductance = 3.9nH
*======================================================================
* Model Parameters:
*   Valid Frequency Range = 0.001GHz-16GHz
*   Ambient Temperature = 25 degC
*   Inductor Impedance Model
*   Use model for Time Domain simulations
*======================================================================
.subckt 0603DC-3N9_imp port1 port2 PARAMS: Cpar=0.027pF Ind=3.9nH
X1 port1 port2 Model1D PARAMS:
+ R1=1.65
+ R2=0.031
+ C= {Cpar}
+ K1=0.00000558
+ K2=0
+ K3= {Ind}
+ K4=0
+ K5=0
+ L=0
+ Is=0
+ a=0
+ L_Z0=0
+ L_EL=0
+ L_F0=0E6
+ PkZ=61599.4909
.ends 0603DC-3N9_imp

*======================================================================
* SPICE Model generated by Coilcraft
* Coilcraft Part Number : 0603DC-4N3
* Inductance = 4.3nH
*======================================================================
* Model Parameters:
*   Valid Frequency Range = 0.001GHz-16GHz
*   Ambient Temperature = 25 degC
*   Inductor Frequency Model
*   Use model for Frequency Domain simulations
*======================================================================
.subckt 0603DC-4N3_freq port1 port2 PARAMS: Cpar=0.0326pF Ind=4.3nH
X1 port1 port2 Model2A PARAMS:
+ R1=12
+ R2=0.031
+ C= {Cpar}
+ K1=0.00000623
+ K2=0
+ K3= {Ind}
+ K4=0
+ K5=0
+ L=0
+ Is=0
+ a=0
+ L_Z0=0
+ L_EL=0
+ L_F0=0E6
+ PkZ=10373.4639
.ends 0603DC-4N3_freq

*======================================================================
* SPICE Model generated by Coilcraft
* Coilcraft Part Number : 0603DC-4N3
* Inductance = 4.3nH
*======================================================================
* Model Parameters:
*   Valid Frequency Range = 0.001GHz-16GHz
*   Ambient Temperature = 25 degC
*   Inductor Impedance Model
*   Use model for Time Domain simulations
*======================================================================
.subckt 0603DC-4N3_imp port1 port2 PARAMS: Cpar=0.033pF Ind=4.3nH
X1 port1 port2 Model1D PARAMS:
+ R1=12
+ R2=0.031
+ C= {Cpar}
+ K1=0.00000623
+ K2=0
+ K3= {Ind}
+ K4=0
+ K5=0
+ L=0
+ Is=0
+ a=0
+ L_Z0=0
+ L_EL=0
+ L_F0=0E6
+ PkZ=10373.4639
.ends 0603DC-4N3_imp

*======================================================================
* SPICE Model generated by Coilcraft
* Coilcraft Part Number : 0603DC-5N1
* Inductance = 5.1nH
*======================================================================
* Model Parameters:
*   Valid Frequency Range = 0.001GHz-14GHz
*   Ambient Temperature = 25 degC
*   Inductor Frequency Model
*   Use model for Frequency Domain simulations
*======================================================================
.subckt 0603DC-5N1_freq port1 port2 PARAMS: Cpar=0.042pF Ind=5.1nH
X1 port1 port2 Model2A PARAMS:
+ R1=2
+ R2=0.035
+ C= {Cpar}
+ K1=0.0000087
+ K2=0
+ K3= {Ind}
+ K4=0
+ K5=0
+ L=0
+ Is=0
+ a=0
+ L_Z0=0
+ L_EL=0
+ L_F0=0E6
+ PkZ=41768.441
.ends 0603DC-5N1_freq

*======================================================================
* SPICE Model generated by Coilcraft
* Coilcraft Part Number : 0603DC-5N1
* Inductance = 5.1nH
*======================================================================
* Model Parameters:
*   Valid Frequency Range = 0.001GHz-14GHz
*   Ambient Temperature = 25 degC
*   Inductor Impedance Model
*   Use model for Time Domain simulations
*======================================================================
.subckt 0603DC-5N1_imp port1 port2 PARAMS: Cpar=0.042pF Ind=5.1nH
X1 port1 port2 Model1D PARAMS:
+ R1=2
+ R2=0.035
+ C= {Cpar}
+ K1=0.0000087
+ K2=0
+ K3= {Ind}
+ K4=0
+ K5=0
+ L=0
+ Is=0
+ a=0
+ L_Z0=0
+ L_EL=0
+ L_F0=0E6
+ PkZ=41768.441
.ends 0603DC-5N1_imp

*======================================================================
* SPICE Model generated by Coilcraft
* Coilcraft Part Number : 0603DC-5N6
* Inductance = 5.6nH
*======================================================================
* Model Parameters:
*   Valid Frequency Range = 0.001GHz-14GHz
*   Ambient Temperature = 25 degC
*   Inductor Frequency Model
*   Use model for Frequency Domain simulations
*======================================================================
.subckt 0603DC-5N6_freq port1 port2 PARAMS: Cpar=0.11pF Ind=5.6nH
X1 port1 port2 Model2A PARAMS:
+ R1=8
+ R2=0.042
+ C= {Cpar}
+ K1=0.0000096
+ K2=0
+ K3= {Ind}
+ K4=0
+ K5=0
+ L=0
+ Is=0
+ a=0
+ L_Z0=0
+ L_EL=0
+ L_F0=0E6
+ PkZ=5809.46362
.ends 0603DC-5N6_freq

*======================================================================
* SPICE Model generated by Coilcraft
* Coilcraft Part Number : 0603DC-5N6
* Inductance = 5.6nH
*======================================================================
* Model Parameters:
*   Valid Frequency Range = 0.001GHz-14GHz
*   Ambient Temperature = 25 degC
*   Inductor Impedance Model
*   Use model for Time Domain simulations
*======================================================================
.subckt 0603DC-5N6_imp port1 port2 PARAMS: Cpar=0.11pF Ind=5.6nH
X1 port1 port2 Model1D PARAMS:
+ R1=8
+ R2=0.042
+ C= {Cpar}
+ K1=0.0000096
+ K2=0
+ K3= {Ind}
+ K4=0
+ K5=0
+ L=0
+ Is=0
+ a=0
+ L_Z0=0
+ L_EL=0
+ L_F0=0E6
+ PkZ=5809.46362
.ends 0603DC-5N6_imp

*======================================================================
* SPICE Model generated by Coilcraft
* Coilcraft Part Number : 0603DC-6N2
* Inductance = 6.2nH
*======================================================================
* Model Parameters:
*   Valid Frequency Range = 0.001GHz-14GHz
*   Ambient Temperature = 25 degC
*   Inductor Frequency Model
*   Use model for Frequency Domain simulations
*======================================================================
.subckt 0603DC-6N2_freq port1 port2 PARAMS: Cpar=0.033pF Ind=6.2nH
X1 port1 port2 Model2A PARAMS:
+ R1=6
+ R2=0.037
+ C= {Cpar}
+ K1=0.00001
+ K2=0
+ K3= {Ind}
+ K4=0
+ K5=0
+ L=0
+ Is=0
+ a=0
+ L_Z0=0
+ L_EL=0
+ L_F0=0E6
+ PkZ=26633.8838
.ends 0603DC-6N2_freq

*======================================================================
* SPICE Model generated by Coilcraft
* Coilcraft Part Number : 0603DC-6N2
* Inductance = 6.2nH
*======================================================================
* Model Parameters:
*   Valid Frequency Range = 0.001GHz-14GHz
*   Ambient Temperature = 25 degC
*   Inductor Impedance Model
*   Use model for Time Domain simulations
*======================================================================
.subckt 0603DC-6N2_imp port1 port2 PARAMS: Cpar=0.033pF Ind=6.2nH
X1 port1 port2 Model1D PARAMS:
+ R1=6
+ R2=0.037
+ C= {Cpar}
+ K1=0.00001
+ K2=0
+ K3= {Ind}
+ K4=0
+ K5=0
+ L=0
+ Is=0
+ a=0
+ L_Z0=0
+ L_EL=0
+ L_F0=0E6
+ PkZ=26633.8838
.ends 0603DC-6N2_imp

*======================================================================
* SPICE Model generated by Coilcraft
* Coilcraft Part Number : 0603DC-6N8
* Inductance = 6.8nH
*======================================================================
* Model Parameters:
*   Valid Frequency Range = 0.001GHz-14GHz
*   Ambient Temperature = 25 degC
*   Inductor Frequency Model
*   Use model for Frequency Domain simulations
*======================================================================
.subckt 0603DC-6N8_freq port1 port2 PARAMS: Cpar=0.04pF Ind=6.8nH
X1 port1 port2 Model2A PARAMS:
+ R1=20
+ R2=0.037
+ C= {Cpar}
+ K1=0.0000115
+ K2=0
+ K3= {Ind}
+ K4=0
+ K5=0
+ L=0
+ Is=0
+ a=0
+ L_Z0=0
+ L_EL=0
+ L_F0=0E6
+ PkZ=8055.07165
.ends 0603DC-6N8_freq

*======================================================================
* SPICE Model generated by Coilcraft
* Coilcraft Part Number : 0603DC-6N8
* Inductance = 6.8nH
*======================================================================
* Model Parameters:
*   Valid Frequency Range = 0.001GHz-14GHz
*   Ambient Temperature = 25 degC
*   Inductor Impedance Model
*   Use model for Time Domain simulations
*======================================================================
.subckt 0603DC-6N8_imp port1 port2 PARAMS: Cpar=0.04pF Ind=6.8nH
X1 port1 port2 Model1D PARAMS:
+ R1=20
+ R2=0.037
+ C= {Cpar}
+ K1=0.0000115
+ K2=0
+ K3= {Ind}
+ K4=0
+ K5=0
+ L=0
+ Is=0
+ a=0
+ L_Z0=0
+ L_EL=0
+ L_F0=0E6
+ PkZ=8055.07165
.ends 0603DC-6N8_imp

*======================================================================
* SPICE Model generated by Coilcraft
* Coilcraft Part Number : 0603DC-7N5
* Inductance = 7.5nH
*======================================================================
* Model Parameters:
*   Valid Frequency Range = 0.001GHz-12GHz
*   Ambient Temperature = 25 degC
*   Inductor Frequency Model
*   Use model for Frequency Domain simulations
*======================================================================
.subckt 0603DC-7N5_freq port1 port2 PARAMS: Cpar=0.038pF Ind=7.5nH
X1 port1 port2 Model2A PARAMS:
+ R1=4.4
+ R2=0.041
+ C= {Cpar}
+ K1=0.0000127
+ K2=0
+ K3= {Ind}
+ K4=0
+ K5=0
+ L=0
+ Is=0
+ a=0
+ L_Z0=0
+ L_EL=0
+ L_F0=0E6
+ PkZ=35039.0833
.ends 0603DC-7N5_freq

*======================================================================
* SPICE Model generated by Coilcraft
* Coilcraft Part Number : 0603DC-7N5
* Inductance = 7.5nH
*======================================================================
* Model Parameters:
*   Valid Frequency Range = 0.001GHz-12GHz
*   Ambient Temperature = 25 degC
*   Inductor Impedance Model
*   Use model for Time Domain simulations
*======================================================================
.subckt 0603DC-7N5_imp port1 port2 PARAMS: Cpar=0.038pF Ind=7.5nH
X1 port1 port2 Model1D PARAMS:
+ R1=4.4
+ R2=0.041
+ C= {Cpar}
+ K1=0.0000127
+ K2=0
+ K3= {Ind}
+ K4=0
+ K5=0
+ L=0
+ Is=0
+ a=0
+ L_Z0=0
+ L_EL=0
+ L_F0=0E6
+ PkZ=35039.0833
.ends 0603DC-7N5_imp

*======================================================================
* SPICE Model generated by Coilcraft
* Coilcraft Part Number : 0603DC-8N2
* Inductance = 8.2nH
*======================================================================
* Model Parameters:
*   Valid Frequency Range = 0.001GHz-14GHz
*   Ambient Temperature = 25 degC
*   Inductor Frequency Model
*   Use model for Frequency Domain simulations
*======================================================================
.subckt 0603DC-8N2_freq port1 port2 PARAMS: Cpar=0.041pF Ind=8.2nH
X1 port1 port2 Model2A PARAMS:
+ R1=2.2
+ R2=0.076
+ C= {Cpar}
+ K1=0.0000135
+ K2=0
+ K3= {Ind}
+ K4=0
+ K5=0
+ L=0
+ Is=0
+ a=0
+ L_Z0=0
+ L_EL=0
+ L_F0=0E6
+ PkZ=57842.079
.ends 0603DC-8N2_freq

*======================================================================
* SPICE Model generated by Coilcraft
* Coilcraft Part Number : 0603DC-8N2
* Inductance = 8.2nH
*======================================================================
* Model Parameters:
*   Valid Frequency Range = 0.001GHz-14GHz
*   Ambient Temperature = 25 degC
*   Inductor Impedance Model
*   Use model for Time Domain simulations
*======================================================================
.subckt 0603DC-8N2_imp port1 port2 PARAMS: Cpar=0.041pF Ind=8.2nH
X1 port1 port2 Model1D PARAMS:
+ R1=2.2
+ R2=0.076
+ C= {Cpar}
+ K1=0.0000135
+ K2=0
+ K3= {Ind}
+ K4=0
+ K5=0
+ L=0
+ Is=0
+ a=0
+ L_Z0=0
+ L_EL=0
+ L_F0=0E6
+ PkZ=57842.079
.ends 0603DC-8N2_imp

*======================================================================
* SPICE Model generated by Coilcraft
* Coilcraft Part Number : 0603DC-9N1
* Inductance = 9.1nH
*======================================================================
* Model Parameters:
*   Valid Frequency Range = 0.001GHz-10GHz
*   Ambient Temperature = 25 degC
*   Inductor Frequency Model
*   Use model for Frequency Domain simulations
*======================================================================
.subckt 0603DC-9N1_freq port1 port2 PARAMS: Cpar=0.041pF Ind=9.1nH
X1 port1 port2 Model2A PARAMS:
+ R1=3
+ R2=0.016
+ C= {Cpar}
+ K1=0.0000165
+ K2=0
+ K3= {Ind}
+ K4=0
+ K5=0
+ L=0
+ Is=0
+ a=0
+ L_Z0=0
+ L_EL=0
+ L_F0=0E6
+ PkZ=49348.4919
.ends 0603DC-9N1_freq

*======================================================================
* SPICE Model generated by Coilcraft
* Coilcraft Part Number : 0603DC-9N1
* Inductance = 9.1nH
*======================================================================
* Model Parameters:
*   Valid Frequency Range = 0.001GHz-10GHz
*   Ambient Temperature = 25 degC
*   Inductor Impedance Model
*   Use model for Time Domain simulations
*======================================================================
.subckt 0603DC-9N1_imp port1 port2 PARAMS: Cpar=0.041pF Ind=9.1nH
X1 port1 port2 Model1D PARAMS:
+ R1=3
+ R2=0.016
+ C= {Cpar}
+ K1=0.0000165
+ K2=0
+ K3= {Ind}
+ K4=0
+ K5=0
+ L=0
+ Is=0
+ a=0
+ L_Z0=0
+ L_EL=0
+ L_F0=0E6
+ PkZ=49348.4919
.ends 0603DC-9N1_imp

*======================================================================
* SPICE Model generated by Coilcraft
* Coilcraft Part Number : 0603DC-10N
* Inductance = 10nH
*======================================================================
* Model Parameters:
*   Valid Frequency Range = 0.001GHz-10GHz
*   Ambient Temperature = 25 degC
*   Inductor Frequency Model
*   Use model for Frequency Domain simulations
*======================================================================
.subckt 0603DC-10N_freq port1 port2 PARAMS: Cpar=0.046pF Ind=10nH
X1 port1 port2 Model2A PARAMS:
+ R1=2.6
+ R2=0.022
+ C= {Cpar}
+ K1=0.0000195
+ K2=0
+ K3= {Ind}
+ K4=0
+ K5=0
+ L=0
+ Is=0
+ a=0
+ L_Z0=0
+ L_EL=0
+ L_F0=0E6
+ PkZ=50795.9815
.ends 0603DC-10N_freq

*======================================================================
* SPICE Model generated by Coilcraft
* Coilcraft Part Number : 0603DC-10N
* Inductance = 10nH
*======================================================================
* Model Parameters:
*   Valid Frequency Range = 0.001GHz-10GHz
*   Ambient Temperature = 25 degC
*   Inductor Impedance Model
*   Use model for Time Domain simulations
*======================================================================
.subckt 0603DC-10N_imp port1 port2 PARAMS: Cpar=0.046pF Ind=10nH
X1 port1 port2 Model1D PARAMS:
+ R1=2.6
+ R2=0.022
+ C= {Cpar}
+ K1=0.0000195
+ K2=0
+ K3= {Ind}
+ K4=0
+ K5=0
+ L=0
+ Is=0
+ a=0
+ L_Z0=0
+ L_EL=0
+ L_F0=0E6
+ PkZ=50795.9815
.ends 0603DC-10N_imp

*======================================================================
* SPICE Model generated by Coilcraft
* Coilcraft Part Number : 0603DC-11N
* Inductance = 11nH
*======================================================================
* Model Parameters:
*   Valid Frequency Range = 0.001GHz-8GHz
*   Ambient Temperature = 25 degC
*   Inductor Frequency Model
*   Use model for Frequency Domain simulations
*======================================================================
.subckt 0603DC-11N_freq port1 port2 PARAMS: Cpar=0.044pF Ind=11nH
X1 port1 port2 Model2A PARAMS:
+ R1=4.5
+ R2=0.052
+ C= {Cpar}
+ K1=0.00002
+ K2=0
+ K3= {Ind}
+ K4=0
+ K5=0
+ L=0
+ Is=0
+ a=0
+ L_Z0=0
+ L_EL=0
+ L_F0=0E6
+ PkZ=40317.373
.ends 0603DC-11N_freq

*======================================================================
* SPICE Model generated by Coilcraft
* Coilcraft Part Number : 0603DC-11N
* Inductance = 11nH
*======================================================================
* Model Parameters:
*   Valid Frequency Range = 0.001GHz-8GHz
*   Ambient Temperature = 25 degC
*   Inductor Impedance Model
*   Use model for Time Domain simulations
*======================================================================
.subckt 0603DC-11N_imp port1 port2 PARAMS: Cpar=0.044pF Ind=11nH
X1 port1 port2 Model1D PARAMS:
+ R1=4.5
+ R2=0.052
+ C= {Cpar}
+ K1=0.00002
+ K2=0
+ K3= {Ind}
+ K4=0
+ K5=0
+ L=0
+ Is=0
+ a=0
+ L_Z0=0
+ L_EL=0
+ L_F0=0E6
+ PkZ=40317.373
.ends 0603DC-11N_imp

*======================================================================
* SPICE Model generated by Coilcraft
* Coilcraft Part Number : 0603DC-12N
* Inductance = 12nH
*======================================================================
* Model Parameters:
*   Valid Frequency Range = 0.001GHz-8GHz
*   Ambient Temperature = 25 degC
*   Inductor Frequency Model
*   Use model for Frequency Domain simulations
*======================================================================
.subckt 0603DC-12N_freq port1 port2 PARAMS: Cpar=0.052pF Ind=12nH
X1 port1 port2 Model2A PARAMS:
+ R1=3.5
+ R2=0.052
+ C= {Cpar}
+ K1=0.00002
+ K2=0
+ K3= {Ind}
+ K4=0
+ K5=0
+ L=0
+ Is=0
+ a=0
+ L_Z0=0
+ L_EL=0
+ L_F0=0E6
+ PkZ=45282.2618
.ends 0603DC-12N_freq

*======================================================================
* SPICE Model generated by Coilcraft
* Coilcraft Part Number : 0603DC-12N
* Inductance = 12nH
*======================================================================
* Model Parameters:
*   Valid Frequency Range = 0.001GHz-8GHz
*   Ambient Temperature = 25 degC
*   Inductor Impedance Model
*   Use model for Time Domain simulations
*======================================================================
.subckt 0603DC-12N_imp port1 port2 PARAMS: Cpar=0.052pF Ind=12nH
X1 port1 port2 Model1D PARAMS:
+ R1=3.5
+ R2=0.052
+ C= {Cpar}
+ K1=0.00002
+ K2=0
+ K3= {Ind}
+ K4=0
+ K5=0
+ L=0
+ Is=0
+ a=0
+ L_Z0=0
+ L_EL=0
+ L_F0=0E6
+ PkZ=45282.2618
.ends 0603DC-12N_imp

*======================================================================
* SPICE Model generated by Coilcraft
* Coilcraft Part Number : 0603DC-15N
* Inductance = 15nH
*======================================================================
* Model Parameters:
*   Valid Frequency Range = 0.001GHz-8GHz
*   Ambient Temperature = 25 degC
*   Inductor Frequency Model
*   Use model for Frequency Domain simulations
*======================================================================
.subckt 0603DC-15N_freq port1 port2 PARAMS: Cpar=0.046pF Ind=15nH
X1 port1 port2 Model2A PARAMS:
+ R1=10
+ R2=0.059
+ C= {Cpar}
+ K1=0.0000254
+ K2=0
+ K3= {Ind}
+ K4=0
+ K5=0
+ L=0
+ Is=0
+ a=0
+ L_Z0=0
+ L_EL=0
+ L_F0=0E6
+ PkZ=27230.2351
.ends 0603DC-15N_freq

*======================================================================
* SPICE Model generated by Coilcraft
* Coilcraft Part Number : 0603DC-15N
* Inductance = 15nH
*======================================================================
* Model Parameters:
*   Valid Frequency Range = 0.001GHz-8GHz
*   Ambient Temperature = 25 degC
*   Inductor Impedance Model
*   Use model for Time Domain simulations
*======================================================================
.subckt 0603DC-15N_imp port1 port2 PARAMS: Cpar=0.046pF Ind=15nH
X1 port1 port2 Model1D PARAMS:
+ R1=10
+ R2=0.059
+ C= {Cpar}
+ K1=0.0000254
+ K2=0
+ K3= {Ind}
+ K4=0
+ K5=0
+ L=0
+ Is=0
+ a=0
+ L_Z0=0
+ L_EL=0
+ L_F0=0E6
+ PkZ=27230.2351
.ends 0603DC-15N_imp

*======================================================================
* SPICE Model generated by Coilcraft
* Coilcraft Part Number : 0603DC-16N
* Inductance = 16nH
*======================================================================
* Model Parameters:
*   Valid Frequency Range = 0.001GHz-8GHz
*   Ambient Temperature = 25 degC
*   Inductor Frequency Model
*   Use model for Frequency Domain simulations
*======================================================================
.subckt 0603DC-16N_freq port1 port2 PARAMS: Cpar=0.056pF Ind=16nH
X1 port1 port2 Model2A PARAMS:
+ R1=67
+ R2=0.059
+ C= {Cpar}
+ K1=0.000032
+ K2=0
+ K3= {Ind}
+ K4=0
+ K5=0
+ L=0
+ Is=0
+ a=0
+ L_Z0=0
+ L_EL=0
+ L_F0=0E6
+ PkZ=4153.22166
.ends 0603DC-16N_freq

*======================================================================
* SPICE Model generated by Coilcraft
* Coilcraft Part Number : 0603DC-16N
* Inductance = 16nH
*======================================================================
* Model Parameters:
*   Valid Frequency Range = 0.001GHz-8GHz
*   Ambient Temperature = 25 degC
*   Inductor Impedance Model
*   Use model for Time Domain simulations
*======================================================================
.subckt 0603DC-16N_imp port1 port2 PARAMS: Cpar=0.056pF Ind=16nH
X1 port1 port2 Model1D PARAMS:
+ R1=67
+ R2=0.059
+ C= {Cpar}
+ K1=0.000032
+ K2=0
+ K3= {Ind}
+ K4=0
+ K5=0
+ L=0
+ Is=0
+ a=0
+ L_Z0=0
+ L_EL=0
+ L_F0=0E6
+ PkZ=4153.22166
.ends 0603DC-16N_imp

*======================================================================
* SPICE Model generated by Coilcraft
* Coilcraft Part Number : 0603DC-18N
* Inductance = 18nH
*======================================================================
* Model Parameters:
*   Valid Frequency Range = 0.001GHz-6GHz
*   Ambient Temperature = 25 degC
*   Inductor Frequency Model
*   Use model for Frequency Domain simulations
*======================================================================
.subckt 0603DC-18N_freq port1 port2 PARAMS: Cpar=0.063pF Ind=18nH
X1 port1 port2 Model2A PARAMS:
+ R1=33.5
+ R2=0.062
+ C= {Cpar}
+ K1=0.000034
+ K2=0
+ K3= {Ind}
+ K4=0
+ K5=0
+ L=0
+ Is=0
+ a=0
+ L_Z0=0
+ L_EL=0
+ L_F0=0E6
+ PkZ=7988.29431
.ends 0603DC-18N_freq

*======================================================================
* SPICE Model generated by Coilcraft
* Coilcraft Part Number : 0603DC-18N
* Inductance = 18nH
*======================================================================
* Model Parameters:
*   Valid Frequency Range = 0.001GHz-6GHz
*   Ambient Temperature = 25 degC
*   Inductor Impedance Model
*   Use model for Time Domain simulations
*======================================================================
.subckt 0603DC-18N_imp port1 port2 PARAMS: Cpar=0.063pF Ind=18nH
X1 port1 port2 Model1D PARAMS:
+ R1=33.5
+ R2=0.062
+ C= {Cpar}
+ K1=0.000034
+ K2=0
+ K3= {Ind}
+ K4=0
+ K5=0
+ L=0
+ Is=0
+ a=0
+ L_Z0=0
+ L_EL=0
+ L_F0=0E6
+ PkZ=7988.29431
.ends 0603DC-18N_imp

*======================================================================
* SPICE Model generated by Coilcraft
* Coilcraft Part Number : 0603DC-20N
* Inductance = 20nH
*======================================================================
* Model Parameters:
*   Valid Frequency Range = 0.001GHz-6GHz
*   Ambient Temperature = 25 degC
*   Inductor Frequency Model
*   Use model for Frequency Domain simulations
*======================================================================
.subckt 0603DC-20N_freq port1 port2 PARAMS: Cpar=0.055pF Ind=20nH
X1 port1 port2 Model2A PARAMS:
+ R1=63.5
+ R2=0.067
+ C= {Cpar}
+ K1=0.0000375
+ K2=0
+ K3= {Ind}
+ K4=0
+ K5=0
+ L=0
+ Is=0
+ a=0
+ L_Z0=0
+ L_EL=0
+ L_F0=0E6
+ PkZ=5532.03197
.ends 0603DC-20N_freq

*======================================================================
* SPICE Model generated by Coilcraft
* Coilcraft Part Number : 0603DC-20N
* Inductance = 20nH
*======================================================================
* Model Parameters:
*   Valid Frequency Range = 0.001GHz-6GHz
*   Ambient Temperature = 25 degC
*   Inductor Impedance Model
*   Use model for Time Domain simulations
*======================================================================
.subckt 0603DC-20N_imp port1 port2 PARAMS: Cpar=0.055pF Ind=20nH
X1 port1 port2 Model1D PARAMS:
+ R1=63.5
+ R2=0.067
+ C= {Cpar}
+ K1=0.0000375
+ K2=0
+ K3= {Ind}
+ K4=0
+ K5=0
+ L=0
+ Is=0
+ a=0
+ L_Z0=0
+ L_EL=0
+ L_F0=0E6
+ PkZ=5532.03197
.ends 0603DC-20N_imp

*======================================================================
* SPICE Model generated by Coilcraft
* Coilcraft Part Number : 0603DC-22N
* Inductance = 22nH
*======================================================================
* Model Parameters:
*   Valid Frequency Range = 0.001GHz-6GHz
*   Ambient Temperature = 25 degC
*   Inductor Frequency Model
*   Use model for Frequency Domain simulations
*======================================================================
.subckt 0603DC-22N_freq port1 port2 PARAMS: Cpar=0.0606pF Ind=22nH