*======================================================================
* SPICE Model generated by Coilcraft
* Coilcraft Part Number : 0603LS-47N
* Inductance = 47nH
*======================================================================
* Model Parameters:
*   Valid Frequency Range = 5MHz-500MHz
*   Ambient Temperature = 25 degC
*   Inductor Frequency Model
*   Use model for Frequency Domain simulations
*======================================================================
.subckt 0603LS-47N_freq port1 port2 PARAMS: Cpar=10.6pF Ind=0.0463uH
X1 port1 port2 Model1A PARAMS:
+ R1=490
+ R2=0.001
+ C= {Cpar}
+ K1=0.0000287
+ K2=0.0577
+ K3= {Ind}
+ K4=0.000001
+ K5=0.000001
+ L=0
+ Is=0
+ a=0
+ L_Z0=0
+ L_EL=0
+ L_F0=0E6
+ PkZ=65.7349943
.ends 0603LS-47N_freq

*======================================================================
* SPICE Model generated by Coilcraft
* Coilcraft Part Number : 0603LS-47N
* Inductance = 47nH
*======================================================================
* Model Parameters:
*   Valid Frequency Range = 5MHz-500MHz
*   Ambient Temperature = 25 degC
*   Inductor Impedance Model
*   Use model for Time Domain simulations
*======================================================================
.subckt 0603LS-47N_imp port1 port2 PARAMS: Cpar=10.599pF Ind=0.0463uH
X1 port1 port2 Model1D PARAMS:
+ R1=490
+ R2=0.001
+ C= {Cpar}
+ K1=0.0000287
+ K2=0.0577
+ K3= {Ind}
+ K4=0.000001
+ K5=0.000001
+ L=0
+ Is=0
+ a=0
+ L_Z0=0
+ L_EL=0
+ L_F0=0E6
+ PkZ=65.7349943
.ends 0603LS-47N_imp

*======================================================================
* SPICE Model generated by Coilcraft
* Coilcraft Part Number : 0603LS-51N
* Inductance = 51nH
*======================================================================
* Model Parameters:
*   Valid Frequency Range = 1MHz-500MHz
*   Ambient Temperature = 25 degC
*   Inductor Frequency Model
*   Use model for Frequency Domain simulations
*======================================================================
.subckt 0603LS-51N_freq port1 port2 PARAMS: Cpar=10.9pF Ind=0.051uH
X1 port1 port2 Model1A PARAMS:
+ R1=550
+ R2=0.05
+ C= {Cpar}
+ K1=0.0000287
+ K2=0.03
+ K3= {Ind}
+ K4=0.000001
+ K5=0.000001
+ L=0
+ Is=0
+ a=0
+ L_Z0=0
+ L_EL=0
+ L_F0=0E6
+ PkZ=66.741496
.ends 0603LS-51N_freq

*======================================================================
* SPICE Model generated by Coilcraft
* Coilcraft Part Number : 0603LS-51N
* Inductance = 51nH
*======================================================================
* Model Parameters:
*   Valid Frequency Range = 1MHz-500MHz
*   Ambient Temperature = 25 degC
*   Inductor Impedance Model
*   Use model for Time Domain simulations
*======================================================================
.subckt 0603LS-51N_imp port1 port2 PARAMS: Cpar=10.899pF Ind=0.051uH
X1 port1 port2 Model1D PARAMS:
+ R1=550
+ R2=0.05
+ C= {Cpar}
+ K1=0.0000287
+ K2=0.03
+ K3= {Ind}
+ K4=0.000001
+ K5=0.000001
+ L=0
+ Is=0
+ a=0
+ L_Z0=0
+ L_EL=0
+ L_F0=0E6
+ PkZ=66.741496
.ends 0603LS-51N_imp

*======================================================================
* SPICE Model generated by Coilcraft
* Coilcraft Part Number : 0603LS-72N
* Inductance = 72nH
*======================================================================
* Model Parameters:
*   Valid Frequency Range = 5MHz-500MHz
*   Ambient Temperature = 25 degC
*   Inductor Frequency Model
*   Use model for Frequency Domain simulations
*======================================================================
.subckt 0603LS-72N_freq port1 port2 PARAMS: Cpar=11.5pF Ind=0.07uH
X1 port1 port2 Model1A PARAMS:
+ R1=872
+ R2=0.001
+ C= {Cpar}
+ K1=0.0000507
+ K2=0.165
+ K3= {Ind}
+ K4=0.000001
+ K5=0.000001
+ L=0
+ Is=0
+ a=0
+ L_Z0=0
+ L_EL=0
+ L_F0=0E6
+ PkZ=77.9500344
.ends 0603LS-72N_freq

*======================================================================
* SPICE Model generated by Coilcraft
* Coilcraft Part Number : 0603LS-72N
* Inductance = 72nH
*======================================================================
* Model Parameters:
*   Valid Frequency Range = 5MHz-500MHz
*   Ambient Temperature = 25 degC
*   Inductor Impedance Model
*   Use model for Time Domain simulations
*======================================================================
.subckt 0603LS-72N_imp port1 port2 PARAMS: Cpar=11.499pF Ind=0.07uH
X1 port1 port2 Model1D PARAMS:
+ R1=872
+ R2=0.001
+ C= {Cpar}
+ K1=0.0000507
+ K2=0.165
+ K3= {Ind}
+ K4=0.000001
+ K5=0.000001
+ L=0
+ Is=0
+ a=0
+ L_Z0=0
+ L_EL=0
+ L_F0=0E6
+ PkZ=77.9500344
.ends 0603LS-72N_imp

*======================================================================
* SPICE Model generated by Coilcraft
* Coilcraft Part Number : 0603LS-101
* Inductance = 100nH
*======================================================================
* Model Parameters:
*   Valid Frequency Range = 5MHz-500MHz
*   Ambient Temperature = 25 degC
*   Inductor Frequency Model
*   Use model for Frequency Domain simulations
*======================================================================
.subckt 0603LS-101_freq port1 port2 PARAMS: Cpar=7.5pF Ind=0.095uH
X1 port1 port2 Model1A PARAMS:
+ R1=1264
+ R2=0.001
+ C= {Cpar}
+ K1=0.0000734
+ K2=0.15
+ K3= {Ind}
+ K4=0.000001
+ K5=0.000001
+ L=0
+ Is=0
+ a=0
+ L_Z0=0
+ L_EL=0
+ L_F0=0E6
+ PkZ=112.137272
.ends 0603LS-101_freq

*======================================================================
* SPICE Model generated by Coilcraft
* Coilcraft Part Number : 0603LS-101
* Inductance = 100nH
*======================================================================
* Model Parameters:
*   Valid Frequency Range = 5MHz-500MHz
*   Ambient Temperature = 25 degC
*   Inductor Impedance Model
*   Use model for Time Domain simulations
*======================================================================
.subckt 0603LS-101_imp port1 port2 PARAMS: Cpar=7.5pF Ind=0.095uH
X1 port1 port2 Model1D PARAMS:
+ R1=1264
+ R2=0.001
+ C= {Cpar}
+ K1=0.0000734
+ K2=0.15
+ K3= {Ind}
+ K4=0.000001
+ K5=0.000001
+ L=0
+ Is=0
+ a=0
+ L_Z0=0
+ L_EL=0
+ L_F0=0E6
+ PkZ=112.137272
.ends 0603LS-101_imp

*======================================================================
* SPICE Model generated by Coilcraft
* Coilcraft Part Number : 0603LS-121
* Inductance = 120nH
*======================================================================
* Model Parameters:
*   Valid Frequency Range = 5MHz-500MHz
*   Ambient Temperature = 25 degC
*   Inductor Frequency Model
*   Use model for Frequency Domain simulations
*======================================================================
.subckt 0603LS-121_freq port1 port2 PARAMS: Cpar=7.3pF Ind=0.117uH
X1 port1 port2 Model1A PARAMS:
+ R1=1706
+ R2=0.001
+ C= {Cpar}
+ K1=0.0000734
+ K2=0.152
+ K3= {Ind}
+ K4=0.000001
+ K5=0.000001
+ L=0
+ Is=0
+ a=0
+ L_Z0=0
+ L_EL=0
+ L_F0=0E6
+ PkZ=125.971526
.ends 0603LS-121_freq

*======================================================================
* SPICE Model generated by Coilcraft
* Coilcraft Part Number : 0603LS-121
* Inductance = 120nH
*======================================================================
* Model Parameters:
*   Valid Frequency Range = 5MHz-500MHz
*   Ambient Temperature = 25 degC
*   Inductor Impedance Model
*   Use model for Time Domain simulations
*======================================================================
.subckt 0603LS-121_imp port1 port2 PARAMS: Cpar=7.3pF Ind=0.117uH
X1 port1 port2 Model1D PARAMS:
+ R1=1706
+ R2=0.001
+ C= {Cpar}
+ K1=0.0000734
+ K2=0.152
+ K3= {Ind}
+ K4=0.000001
+ K5=0.000001
+ L=0
+ Is=0
+ a=0
+ L_Z0=0
+ L_EL=0
+ L_F0=0E6
+ PkZ=125.971526
.ends 0603LS-121_imp

*======================================================================
* SPICE Model generated by Coilcraft
* Coilcraft Part Number : 0603LS-151
* Inductance = 150nH
*======================================================================
* Model Parameters:
*   Valid Frequency Range = 5MHz-500MHz
*   Ambient Temperature = 25 degC
*   Inductor Frequency Model
*   Use model for Frequency Domain simulations
*======================================================================
.subckt 0603LS-151_freq port1 port2 PARAMS: Cpar=2pF Ind=0.149uH
X1 port1 port2 Model1A PARAMS:
+ R1=2756
+ R2=0.002
+ C= {Cpar}
+ K1=0.000092
+ K2=0.145
+ K3= {Ind}
+ K4=0.000001
+ K5=0.000001
+ L=0
+ Is=0
+ a=0
+ L_Z0=0
+ L_EL=0
+ L_F0=0E6
+ PkZ=269.40528
.ends 0603LS-151_freq

*======================================================================
* SPICE Model generated by Coilcraft
* Coilcraft Part Number : 0603LS-151
* Inductance = 150nH
*======================================================================
* Model Parameters:
*   Valid Frequency Range = 5MHz-500MHz
*   Ambient Temperature = 25 degC
*   Inductor Impedance Model
*   Use model for Time Domain simulations
*======================================================================
.subckt 0603LS-151_imp port1 port2 PARAMS: Cpar=2pF Ind=0.149uH
X1 port1 port2 Model1D PARAMS:
+ R1=2756
+ R2=0.002
+ C= {Cpar}
+ K1=0.000092
+ K2=0.145
+ K3= {Ind}
+ K4=0.000001
+ K5=0.000001
+ L=0
+ Is=0
+ a=0
+ L_Z0=0
+ L_EL=0
+ L_F0=0E6
+ PkZ=269.40528
.ends 0603LS-151_imp

*======================================================================
* SPICE Model generated by Coilcraft
* Coilcraft Part Number : 0603LS-181
* Inductance = 180nH
*======================================================================
* Model Parameters:
*   Valid Frequency Range = 5MHz-500MHz
*   Ambient Temperature = 25 degC
*   Inductor Frequency Model
*   Use model for Frequency Domain simulations
*======================================================================
.subckt 0603LS-181_freq port1 port2 PARAMS: Cpar=0.9pF Ind=0.179uH
X1 port1 port2 Model1A PARAMS:
+ R1=3546
+ R2=0.005
+ C= {Cpar}
+ K1=0.0000954
+ K2=0.16
+ K3= {Ind}
+ K4=0.000001
+ K5=0.000001
+ L=0
+ Is=0
+ a=0
+ L_Z0=0
+ L_EL=0
+ L_F0=0E6
+ PkZ=437.112047
.ends 0603LS-181_freq

*======================================================================
* SPICE Model generated by Coilcraft
* Coilcraft Part Number : 0603LS-181
* Inductance = 180nH
*======================================================================
* Model Parameters:
*   Valid Frequency Range = 5MHz-500MHz
*   Ambient Temperature = 25 degC
*   Inductor Impedance Model
*   Use model for Time Domain simulations
*======================================================================
.subckt 0603LS-181_imp port1 port2 PARAMS: Cpar=0.9pF Ind=0.179uH
X1 port1 port2 Model1D PARAMS:
+ R1=3546
+ R2=0.005
+ C= {Cpar}
+ K1=0.0000954
+ K2=0.16
+ K3= {Ind}
+ K4=0.000001
+ K5=0.000001
+ L=0
+ Is=0
+ a=0
+ L_Z0=0
+ L_EL=0
+ L_F0=0E6
+ PkZ=437.112047
.ends 0603LS-181_imp

*======================================================================
* SPICE Model generated by Coilcraft
* Coilcraft Part Number : 0603LS-241
* Inductance = 240nH
*======================================================================
* Model Parameters:
*   Valid Frequency Range = 5MHz-350MHz
*   Ambient Temperature = 25 degC
*   Inductor Frequency Model
*   Use model for Frequency Domain simulations
*======================================================================
.subckt 0603LS-241_freq port1 port2 PARAMS: Cpar=0.17pF Ind=0.232uH
X1 port1 port2 Model1A PARAMS:
+ R1=4025
+ R2=0.002
+ C= {Cpar}
+ K1=0.000121
+ K2=0.214
+ K3= {Ind}
+ K4=0.000001
+ K5=0.000001
+ L=0
+ Is=0
+ a=0
+ L_Z0=0
+ L_EL=0
+ L_F0=0E6
+ PkZ=1131.75734
.ends 0603LS-241_freq

*======================================================================
* SPICE Model generated by Coilcraft
* Coilcraft Part Number : 0603LS-241
* Inductance = 240nH
*======================================================================
* Model Parameters:
*   Valid Frequency Range = 5MHz-350MHz
*   Ambient Temperature = 25 degC
*   Inductor Impedance Model
*   Use model for Time Domain simulations
*======================================================================
.subckt 0603LS-241_imp port1 port2 PARAMS: Cpar=0.17pF Ind=0.232uH
X1 port1 port2 Model1D PARAMS:
+ R1=4025
+ R2=0.002
+ C= {Cpar}
+ K1=0.000121
+ K2=0.214
+ K3= {Ind}
+ K4=0.000001
+ K5=0.000001
+ L=0
+ Is=0
+ a=0
+ L_Z0=0
+ L_EL=0
+ L_F0=0E6
+ PkZ=1131.75734
.ends 0603LS-241_imp

*======================================================================
* SPICE Model generated by Coilcraft
* Coilcraft Part Number : 0603LS-271
* Inductance = 270nH
*======================================================================
* Model Parameters:
*   Valid Frequency Range = 5MHz-300MHz
*   Ambient Temperature = 25 degC
*   Inductor Frequency Model
*   Use model for Frequency Domain simulations
*======================================================================
.subckt 0603LS-271_freq port1 port2 PARAMS: Cpar=0.11pF Ind=0.261uH
X1 port1 port2 Model1A PARAMS:
+ R1=3518
+ R2=0.002
+ C= {Cpar}
+ K1=0.000115
+ K2=0.217
+ K3= {Ind}
+ K4=0.000001
+ K5=0.000001
+ L=0
+ Is=0
+ a=0
+ L_Z0=0
+ L_EL=0
+ L_F0=0E6
+ PkZ=1492.11007
.ends 0603LS-271_freq

*======================================================================
* SPICE Model generated by Coilcraft
* Coilcraft Part Number : 0603LS-271
* Inductance = 270nH
*======================================================================
* Model Parameters:
*   Valid Frequency Range = 5MHz-300MHz
*   Ambient Temperature = 25 degC
*   Inductor Impedance Model
*   Use model for Time Domain simulations
*======================================================================
.subckt 0603LS-271_imp port1 port2 PARAMS: Cpar=0.11pF Ind=0.261uH
X1 port1 port2 Model1D PARAMS:
+ R1=3518
+ R2=0.002
+ C= {Cpar}
+ K1=0.000115
+ K2=0.217
+ K3= {Ind}
+ K4=0.000001
+ K5=0.000001
+ L=0
+ Is=0
+ a=0
+ L_Z0=0
+ L_EL=0
+ L_F0=0E6
+ PkZ=1492.11007
.ends 0603LS-271_imp

*======================================================================
* SPICE Model generated by Coilcraft
* Coilcraft Part Number : 0603LS-331
* Inductance = 330nH
*======================================================================
* Model Parameters:
*   Valid Frequency Range = 5MHz-300MHz
*   Ambient Temperature = 25 degC
*   Inductor Frequency Model
*   Use model for Frequency Domain simulations
*======================================================================
.subckt 0603LS-331_freq port1 port2 PARAMS: Cpar=0.12pF Ind=0.325uH
X1 port1 port2 Model1A PARAMS:
+ R1=3330
+ R2=0.002
+ C= {Cpar}
+ K1=0.00013
+ K2=0.242
+ K3= {Ind}
+ K4=0.000001
+ K5=0.000001
+ L=0
+ Is=0
+ a=0
+ L_Z0=0
+ L_EL=0
+ L_F0=0E6
+ PkZ=1602.79833
.ends 0603LS-331_freq

*======================================================================
* SPICE Model generated by Coilcraft
* Coilcraft Part Number : 0603LS-331
* Inductance = 330nH
*======================================================================
* Model Parameters:
*   Valid Frequency Range = 5MHz-300MHz
*   Ambient Temperature = 25 degC
*   Inductor Impedance Model
*   Use model for Time Domain simulations
*======================================================================
.subckt 0603LS-331_imp port1 port2 PARAMS: Cpar=0.12pF Ind=0.325uH
X1 port1 port2 Model1D PARAMS:
+ R1=3330
+ R2=0.002
+ C= {Cpar}
+ K1=0.00013
+ K2=0.242
+ K3= {Ind}
+ K4=0.000001
+ K5=0.000001
+ L=0
+ Is=0
+ a=0
+ L_Z0=0
+ L_EL=0
+ L_F0=0E6
+ PkZ=1602.79833
.ends 0603LS-331_imp

*======================================================================
* SPICE Model generated by Coilcraft
* Coilcraft Part Number : 0603LS-391
* Inductance = 390nH
*======================================================================
* Model Parameters:
*   Valid Frequency Range = 5MHz-300MHz
*   Ambient Temperature = 25 degC
*   Inductor Frequency Model
*   Use model for Frequency Domain simulations
*======================================================================
.subckt 0603LS-391_freq port1 port2 PARAMS: Cpar=0.14pF Ind=0.379uH
X1 port1 port2 Model1A PARAMS:
+ R1=2920
+ R2=0.095
+ C= {Cpar}
+ K1=0.000144
+ K2=0.372
+ K3= {Ind}
+ K4=0.000001
+ K5=0.000001
+ L=0
+ Is=0
+ a=0
+ L_Z0=0
+ L_EL=0
+ L_F0=0E6
+ PkZ=1702.53088
.ends 0603LS-391_freq

*======================================================================
* SPICE Model generated by Coilcraft
* Coilcraft Part Number : 0603LS-391
* Inductance = 390nH
*======================================================================
* Model Parameters:
*   Valid Frequency Range = 5MHz-300MHz
*   Ambient Temperature = 25 degC
*   Inductor Impedance Model
*   Use model for Time Domain simulations
*======================================================================
.subckt 0603LS-391_imp port1 port2 PARAMS: Cpar=0.14pF Ind=0.379uH
X1 port1 port2 Model1D PARAMS:
+ R1=2920
+ R2=0.095
+ C= {Cpar}
+ K1=0.000144
+ K2=0.372
+ K3= {Ind}
+ K4=0.000001
+ K5=0.000001
+ L=0
+ Is=0
+ a=0
+ L_Z0=0
+ L_EL=0
+ L_F0=0E6
+ PkZ=1702.53088
.ends 0603LS-391_imp

*======================================================================
* SPICE Model generated by Coilcraft
* Coilcraft Part Number : 0603LS-471
* Inductance = 470nH
*======================================================================
* Model Parameters:
*   Valid Frequency Range = 5MHz-300MHz
*   Ambient Temperature = 25 degC
*   Inductor Frequency Model
*   Use model for Frequency Domain simulations
*======================================================================
.subckt 0603LS-471_freq port1 port2 PARAMS: Cpar=0.13pF Ind=0.455uH
X1 port1 port2 Model1A PARAMS:
+ R1=1886
+ R2=0.432
+ C= {Cpar}
+ K1=0.000038
+ K2=0.347
+ K3= {Ind}
+ K4=0.000001
+ K5=0.000001
+ L=0
+ Is=0
+ a=0
+ L_Z0=0
+ L_EL=0
+ L_F0=0E6
+ PkZ=2146.40019
.ends 0603LS-471_freq

*======================================================================
* SPICE Model generated by Coilcraft
* Coilcraft Part Number : 0603LS-471
* Inductance = 470nH
*======================================================================
* Model Parameters:
*   Valid Frequency Range = 5MHz-300MHz
*   Ambient Temperature = 25 degC
*   Inductor Impedance Model
*   Use model for Time Domain simulations
*======================================================================
.subckt 0603LS-471_imp port1 port2 PARAMS: Cpar=0.13pF Ind=0.455uH
X1 port1 port2 Model1D PARAMS:
+ R1=1886
+ R2=0.432
+ C= {Cpar}
+ K1=0.000038
+ K2=0.347
+ K3= {Ind}
+ K4=0.000001
+ K5=0.000001
+ L=0
+ Is=0
+ a=0
+ L_Z0=0
+ L_EL=0
+ L_F0=0E6
+ PkZ=2146.40019
.ends 0603LS-471_imp

*======================================================================
* SPICE Model generated by Coilcraft
* Coilcraft Part Number : 0603LS-561
* Inductance = 560nH
*======================================================================
* Model Parameters:
*   Valid Frequency Range = 5MHz-300MHz
*   Ambient Temperature = 25 degC
*   Inductor Frequency Model
*   Use model for Frequency Domain simulations
*======================================================================
.subckt 0603LS-561_freq port1 port2 PARAMS: Cpar=0.13pF Ind=0.535uH
X1 port1 port2 Model1A PARAMS:
+ R1=1676
+ R2=0.319
+ C= {Cpar}
+ K1=0.0000394
+ K2=0.394
+ K3= {Ind}
+ K4=0.000001
+ K5=0.000001
+ L=0
+ Is=0
+ a=0
+ L_Z0=0
+ L_EL=0
+ L_F0=0E6
+ PkZ=2504.77434
.ends 0603LS-561_freq

*======================================================================
* SPICE Model generated by Coilcraft
* Coilcraft Part Number : 0603LS-561
* Inductance = 560nH
*======================================================================
* Model Parameters:
*   Valid Frequency Range = 5MHz-300MHz
*   Ambient Temperature = 25 degC
*   Inductor Impedance Model
*   Use model for Time Domain simulations
*======================================================================
.subckt 0603LS-561_imp port1 port2 PARAMS: Cpar=0.13pF Ind=0.535uH
X1 port1 port2 Model1D PARAMS:
+ R1=1676
+ R2=0.319
+ C= {Cpar}
+ K1=0.0000394
+ K2=0.394
+ K3= {Ind}
+ K4=0.000001
+ K5=0.000001
+ L=0
+ Is=0
+ a=0
+ L_Z0=0
+ L_EL=0
+ L_F0=0E6
+ PkZ=2504.77434
.ends 0603LS-561_imp

*======================================================================
* SPICE Model generated by Coilcraft
* Coilcraft Part Number : 0603LS-681
* Inductance = 680nH
*======================================================================
* Model Parameters:
*   Valid Frequency Range = 5MHz-200MHz
*   Ambient Temperature = 25 degC
*   Inductor Frequency Model
*   Use model for Frequency Domain simulations
*======================================================================
.subckt 0603LS-681_freq port1 port2 PARAMS: Cpar=0.28pF Ind=0.677uH
X1 port1 port2 Model1A PARAMS:
+ R1=893
+ R2=0.365
+ C= {Cpar}
+ K1=0.0000797
+ K2=0.511
+ K3= {Ind}
+ K4=0.000001
+ K5=0.000001
+ L=0
+ Is=0
+ a=0
+ L_Z0=0
+ L_EL=0
+ L_F0=0E6
+ PkZ=2422.92321
.ends 0603LS-681_freq

*======================================================================
* SPICE Model generated by Coilcraft
* Coilcraft Part Number : 0603LS-681
* Inductance = 680nH
*======================================================================
* Model Parameters:
*   Valid Frequency Range = 5MHz-200MHz
*   Ambient Temperature = 25 degC
*   Inductor Impedance Model
*   Use model for Time Domain simulations
*======================================================================
.subckt 0603LS-681_imp port1 port2 PARAMS: Cpar=0.28pF Ind=0.677uH
X1 port1 port2 Model1D PARAMS:
+ R1=893
+ R2=0.365
+ C= {Cpar}
+ K1=0.0000797
+ K2=0.511
+ K3= {Ind}
+ K4=0.000001
+ K5=0.000001
+ L=0
+ Is=0
+ a=0
+ L_Z0=0
+ L_EL=0
+ L_F0=0E6
+ PkZ=2422.92321
.ends 0603LS-681_imp

*======================================================================
* SPICE Model generated by Coilcraft
* Coilcraft Part Number : 0603LS-781
* Inductance = 780nH
*======================================================================
* Model Parameters:
*   Valid Frequency Range = 5MHz-200MHz
*   Ambient Temperature = 25 degC
*   Inductor Frequency Model
*   Use model for Frequency Domain simulations
*======================================================================
.subckt 0603LS-781_freq port1 port2 PARAMS: Cpar=0.1pF Ind=0.765uH
X1 port1 port2 Model1A PARAMS:
+ R1=3800
+ R2=0.532
+ C= {Cpar}
+ K1=0.0000383
+ K2=0.535
+ K3= {Ind}
+ K4=0.000001
+ K5=0.000001
+ L=0
+ Is=0
+ a=0
+ L_Z0=0
+ L_EL=0
+ L_F0=0E6
+ PkZ=2906.69435
.ends 0603LS-781_freq

*======================================================================
* SPICE Model generated by Coilcraft
* Coilcraft Part Number : 0603LS-781
* Inductance = 780nH
*======================================================================
* Model Parameters:
*   Valid Frequency Range = 5MHz-200MHz
*   Ambient Temperature = 25 degC
*   Inductor Impedance Model
*   Use model for Time Domain simulations
*======================================================================
.subckt 0603LS-781_imp port1 port2 PARAMS: Cpar=0.1pF Ind=0.765uH
X1 port1 port2 Model1D PARAMS:
+ R1=3800
+ R2=0.532
+ C= {Cpar}
+ K1=0.0000383
+ K2=0.535
+ K3= {Ind}
+ K4=0.000001
+ K5=0.000001
+ L=0
+ Is=0
+ a=0
+ L_Z0=0
+ L_EL=0
+ L_F0=0E6
+ PkZ=2906.69435
.ends 0603LS-781_imp

*======================================================================
* SPICE Model generated by Coilcraft
* Coilcraft Part Number : 0603LS-821
* Inductance = 820nH
*======================================================================
* Model Parameters:
*   Valid Frequency Range = 1MHz-150MHz
*   Ambient Temperature = 25 degC
*   Inductor Frequency Model
*   Use model for Frequency Domain simulations
*======================================================================
.subckt 0603LS-821_freq port1 port2 PARAMS: Cpar=0.15pF Ind=0.799uH
X1 port1 port2 Model1A PARAMS:
+ R1=2740
+ R2=0.669
+ C= {Cpar}
+ K1=0.000057
+ K2=0.633
+ K3= {Ind}
+ K4=0.000001
+ K5=0.000001
+ L=0
+ Is=0
+ a=0
+ L_Z0=0
+ L_EL=0
+ L_F0=0E6
+ PkZ=2610.12832
.ends 0603LS-821_freq

*======================================================================
* SPICE Model generated by Coilcraft
* Coilcraft Part Number : 0603LS-821
* Inductance = 820nH
*======================================================================
* Model Parameters:
*   Valid Frequency Range = 1MHz-150MHz
*   Ambient Temperature = 25 degC
*   Inductor Impedance Model
*   Use model for Time Domain simulations
*======================================================================
.subckt 0603LS-821_imp port1 port2 PARAMS: Cpar=0.15pF Ind=0.799uH
X1 port1 port2 Model1D PARAMS:
+ R1=2740
+ R2=0.669
+ C= {Cpar}
+ K1=0.000057
+ K2=0.633
+ K3= {Ind}
+ K4=0.000001
+ K5=0.000001
+ L=0
+ Is=0
+ a=0
+ L_Z0=0
+ L_EL=0
+ L_F0=0E6
+ PkZ=2610.12832
.ends 0603LS-821_imp

*======================================================================
* SPICE Model generated by Coilcraft
* Coilcraft Part Number : 0603LS-102
* Inductance = 1uH
*======================================================================
* Model Parameters:
*   Valid Frequency Range = 1MHz-100MHz
*   Ambient Temperature = 25 degC
*   Inductor Frequency Model
*   Use model for Frequency Domain simulations
*======================================================================
.subckt 0603LS-102_freq port1 port2 PARAMS: Cpar=0.33pF Ind=0.997uH
X1 port1 port2 Model1A PARAMS:
+ R1=1180
+ R2=0.666
+ C= {Cpar}
+ K1=0.000145
+ K2=0.788
+ K3= {Ind}
+ K4=0.000001
+ K5=0.000001
+ L=0
+ Is=0
+ a=0
+ L_Z0=0
+ L_EL=0
+ L_F0=0E6
+ PkZ=2569.65932
.ends 0603LS-102_freq

*======================================================================
* SPICE Model generated by Coilcraft
* Coilcraft Part Number : 0603LS-102
* Inductance = 1uH
*======================================================================
* Model Parameters:
*   Valid Frequency Range = 1MHz-100MHz
*   Ambient Temperature = 25 degC
*   Inductor Impedance Model
*   Use model for Time Domain simulations
*======================================================================
.subckt 0603LS-102_imp port1 port2 PARAMS: Cpar=0.33pF Ind=0.997uH
X1 port1 port2 Model1D PARAMS:
+ R1=1180
+ R2=0.666
+ C= {Cpar}
+ K1=0.000145
+ K2=0.788
+ K3= {Ind}
+ K4=0.000001
+ K5=0.000001
+ L=0
+ Is=0
+ a=0
+ L_Z0=0
+ L_EL=0
+ L_F0=0E6
+ PkZ=2569.65932
.ends 0603LS-102_imp

*======================================================================
* SPICE Model generated by Coilcraft
* Coilcraft Part Number : 0603LS-122
* Inductance = 1.2uH
*======================================================================
* Model Parameters:
*   Valid Frequency Range = 1MHz-80MHz
*   Ambient Temperature = 25 degC
*   Inductor Frequency Model
*   Use model for Frequency Domain simulations
*======================================================================
.subckt 0603LS-122_freq port1 port2 PARAMS: Cpar=0.35pF Ind=1.18uH
X1 port1 port2 Model1A PARAMS:
+ R1=690
+ R2=0.666
+ C= {Cpar}
+ K1=0.0000808
+ K2=0.778
+ K3= {Ind}
+ K4=0.000001
+ K5=0.000001
+ L=0
+ Is=0
+ a=0
+ L_Z0=0
+ L_EL=0
+ L_F0=0E6
+ PkZ=3705.19654
.ends 0603LS-122_freq

*======================================================================
* SPICE Model generated by Coilcraft
* Coilcraft Part Number : 0603LS-122
* Inductance = 1.2uH
*======================================================================
* Model Parameters:
*   Valid Frequency Range = 1MHz-80MHz
*   Ambient Temperature = 25 degC
*   Inductor Impedance Model
*   Use model for Time Domain simulations
*======================================================================
.subckt 0603LS-122_imp port1 port2 PARAMS: Cpar=0.35pF Ind=1.18uH
X1 port1 port2 Model1D PARAMS:
+ R1=690
+ R2=0.666
+ C= {Cpar}
+ K1=0.0000808
+ K2=0.778
+ K3= {Ind}
+ K4=0.000001
+ K5=0.000001
+ L=0
+ Is=0
+ a=0
+ L_Z0=0
+ L_EL=0
+ L_F0=0E6
+ PkZ=3705.19654
.ends 0603LS-122_imp

*======================================================================
* SPICE Model generated by Coilcraft
* Coilcraft Part Number : 0603LS-152
* Inductance = 1.5uH
*======================================================================
* Model Parameters:
*   Valid Frequency Range = 1MHz-80MHz
*   Ambient Temperature = 25 degC
*   Inductor Frequency Model
*   Use model for Frequency Domain simulations
*======================================================================
.subckt 0603LS-152_freq port1 port2 PARAMS: Cpar=1.26pF Ind=1.5uH
X1 port1 port2 Model1A PARAMS:
+ R1=242
+ R2=0.956
+ C= {Cpar}
+ K1=0.0000339
+ K2=0.94
+ K3= {Ind}
+ K4=0.000001
+ K5=0.000001
+ L=0
+ Is=0
+ a=0
+ L_Z0=0
+ L_EL=0
+ L_F0=0E6
+ PkZ=3378.59473
.ends 0603LS-152_freq

*======================================================================
* SPICE Model generated by Coilcraft
* Coilcraft Part Number : 0603LS-152
* Inductance = 1.5uH
*======================================================================
* Model Parameters:
*   Valid Frequency Range = 1MHz-80MHz
*   Ambient Temperature = 25 degC
*   Inductor Impedance Model
*   Use model for Time Domain simulations
*======================================================================
.subckt 0603LS-152_imp port1 port2 PARAMS: Cpar=1.26pF Ind=1.5uH
X1 port1 port2 Model1D PARAMS:
+ R1=242
+ R2=0.956
+ C= {Cpar}
+ K1=0.0000339
+ K2=0.94
+ K3= {Ind}
+ K4=0.000001
+ K5=0.000001
+ L=0