*======================================================================
* SPICE Model generated by Coilcraft
* Coilcraft Part Number : 0805CS-020
* Inductance = 2nH
*======================================================================
* Model Parameters:
*   Valid Frequency Range = 0.001GHz-17.2GHz
*   Ambient Temperature = 25 degC
*   Inductor Frequency Model
*   Use model for Frequency Domain simulations
*======================================================================
.subckt 0805CS-020_freq port1 port2 PARAMS: Cpar=0.038pF Ind=2.75nH
X1 port1 port2 Model2A PARAMS:
+ R1=1
+ R2=0.06
+ C= {Cpar}
+ K1=0.0000064
+ K2=0
+ K3= {Ind}
+ K4=0
+ K5=0
+ L=0
+ Is=0
+ a=0
+ L_Z0=0
+ L_EL=0
+ L_F0=0E6
+ PkZ=40237.2411
.ends 0805CS-020_freq

*======================================================================
* SPICE Model generated by Coilcraft
* Coilcraft Part Number : 0805CS-020
* Inductance = 2nH
*======================================================================
* Model Parameters:
*   Valid Frequency Range = 0.001GHz-17.2GHz
*   Ambient Temperature = 25 degC
*   Inductor Impedance Model
*   Use model for Time Domain simulations
*======================================================================
.subckt 0805CS-020_imp port1 port2 PARAMS: Cpar=0.038pF Ind=2.75nH
X1 port1 port2 Model1D PARAMS:
+ R1=1
+ R2=0.06
+ C= {Cpar}
+ K1=0.0000064
+ K2=0
+ K3= {Ind}
+ K4=0
+ K5=0
+ L=0
+ Is=0
+ a=0
+ L_Z0=0
+ L_EL=0
+ L_F0=0E6
+ PkZ=40237.2411
.ends 0805CS-020_imp

*======================================================================
* SPICE Model generated by Coilcraft
* Coilcraft Part Number : 0805CS-3N0
* Inductance = 3nH
*======================================================================
* Model Parameters:
*   Valid Frequency Range = 0.001GHz-16GHz
*   Ambient Temperature = 25 degC
*   Inductor Frequency Model
*   Use model for Frequency Domain simulations
*======================================================================
.subckt 0805CS-3N0_freq port1 port2 PARAMS: Cpar=0.04pF Ind=3nH
X1 port1 port2 Model2A PARAMS:
+ R1=2
+ R2=0.06
+ C= {Cpar}
+ K1=0.0000089
+ K2=0
+ K3= {Ind}
+ K4=0
+ K5=0
+ L=0
+ Is=0
+ a=0
+ L_Z0=0
+ L_EL=0
+ L_F0=0E6
+ PkZ=24408.8786
.ends 0805CS-3N0_freq

*======================================================================
* SPICE Model generated by Coilcraft
* Coilcraft Part Number : 0805CS-3N0
* Inductance = 3nH
*======================================================================
* Model Parameters:
*   Valid Frequency Range = 0.001GHz-16GHz
*   Ambient Temperature = 25 degC
*   Inductor Impedance Model
*   Use model for Time Domain simulations
*======================================================================
.subckt 0805CS-3N0_imp port1 port2 PARAMS: Cpar=0.04pF Ind=3nH
X1 port1 port2 Model1D PARAMS:
+ R1=2
+ R2=0.06
+ C= {Cpar}
+ K1=0.0000089
+ K2=0
+ K3= {Ind}
+ K4=0
+ K5=0
+ L=0
+ Is=0
+ a=0
+ L_Z0=0
+ L_EL=0
+ L_F0=0E6
+ PkZ=24408.8786
.ends 0805CS-3N0_imp

*======================================================================
* SPICE Model generated by Coilcraft
* Coilcraft Part Number : 0805CS-030
* Inductance = 3nH
*======================================================================
* Model Parameters:
*   Valid Frequency Range = 0.001GHz-14.9GHz
*   Ambient Temperature = 25 degC
*   Inductor Frequency Model
*   Use model for Frequency Domain simulations
*======================================================================
.subckt 0805CS-030_freq port1 port2 PARAMS: Cpar=0.042pF Ind=3.3nH
X1 port1 port2 Model2A PARAMS:
+ R1=3
+ R2=0.08
+ C= {Cpar}
+ K1=0.0000122
+ K2=0
+ K3= {Ind}
+ K4=0
+ K5=0
+ L=0
+ Is=0
+ a=0
+ L_Z0=0
+ L_EL=0
+ L_F0=0E6
+ PkZ=17783.7052
.ends 0805CS-030_freq

*======================================================================
* SPICE Model generated by Coilcraft
* Coilcraft Part Number : 0805CS-030
* Inductance = 3nH
*======================================================================
* Model Parameters:
*   Valid Frequency Range = 0.001GHz-14.9GHz
*   Ambient Temperature = 25 degC
*   Inductor Impedance Model
*   Use model for Time Domain simulations
*======================================================================
.subckt 0805CS-030_imp port1 port2 PARAMS: Cpar=0.042pF Ind=3.3nH
X1 port1 port2 Model1D PARAMS:
+ R1=3
+ R2=0.08
+ C= {Cpar}
+ K1=0.0000122
+ K2=0
+ K3= {Ind}
+ K4=0
+ K5=0
+ L=0
+ Is=0
+ a=0
+ L_Z0=0
+ L_EL=0
+ L_F0=0E6
+ PkZ=17783.7052
.ends 0805CS-030_imp

*======================================================================
* SPICE Model generated by Coilcraft
* Coilcraft Part Number : 0805CS-050
* Inductance = 5nH
*======================================================================
* Model Parameters:
*   Valid Frequency Range = 0.001GHz-10.4GHz
*   Ambient Temperature = 25 degC
*   Inductor Frequency Model
*   Use model for Frequency Domain simulations
*======================================================================
.subckt 0805CS-050_freq port1 port2 PARAMS: Cpar=0.051pF Ind=5.66nH
X1 port1 port2 Model2A PARAMS:
+ R1=4
+ R2=0.08
+ C= {Cpar}
+ K1=0.0000136
+ K2=0
+ K3= {Ind}
+ K4=0
+ K5=0
+ L=0
+ Is=0
+ a=0
+ L_Z0=0
+ L_EL=0
+ L_F0=0E6
+ PkZ=20877.2724
.ends 0805CS-050_freq

*======================================================================
* SPICE Model generated by Coilcraft
* Coilcraft Part Number : 0805CS-050
* Inductance = 5nH
*======================================================================
* Model Parameters:
*   Valid Frequency Range = 0.001GHz-10.4GHz
*   Ambient Temperature = 25 degC
*   Inductor Impedance Model
*   Use model for Time Domain simulations
*======================================================================
.subckt 0805CS-050_imp port1 port2 PARAMS: Cpar=0.051pF Ind=5.66nH
X1 port1 port2 Model1D PARAMS:
+ R1=4
+ R2=0.08
+ C= {Cpar}
+ K1=0.0000136
+ K2=0
+ K3= {Ind}
+ K4=0
+ K5=0
+ L=0
+ Is=0
+ a=0
+ L_Z0=0
+ L_EL=0
+ L_F0=0E6
+ PkZ=20877.2724
.ends 0805CS-050_imp

*======================================================================
* SPICE Model generated by Coilcraft
* Coilcraft Part Number : 0805CS-060
* Inductance = 6nH
*======================================================================
* Model Parameters:
*   Valid Frequency Range = 0.001GHz-10.6GHz
*   Ambient Temperature = 25 degC
*   Inductor Frequency Model
*   Use model for Frequency Domain simulations
*======================================================================
.subckt 0805CS-060_freq port1 port2 PARAMS: Cpar=0.041pF Ind=6.72nH
X1 port1 port2 Model2A PARAMS:
+ R1=5
+ R2=0.11
+ C= {Cpar}
+ K1=0.0000207
+ K2=0
+ K3= {Ind}
+ K4=0
+ K5=0
+ L=0
+ Is=0
+ a=0
+ L_Z0=0
+ L_EL=0
+ L_F0=0E6
+ PkZ=23327.0282
.ends 0805CS-060_freq

*======================================================================
* SPICE Model generated by Coilcraft
* Coilcraft Part Number : 0805CS-060
* Inductance = 6nH
*======================================================================
* Model Parameters:
*   Valid Frequency Range = 0.001GHz-10.6GHz
*   Ambient Temperature = 25 degC
*   Inductor Impedance Model
*   Use model for Time Domain simulations
*======================================================================
.subckt 0805CS-060_imp port1 port2 PARAMS: Cpar=0.041pF Ind=6.72nH
X1 port1 port2 Model1D PARAMS:
+ R1=5
+ R2=0.11
+ C= {Cpar}
+ K1=0.0000207
+ K2=0
+ K3= {Ind}
+ K4=0
+ K5=0
+ L=0
+ Is=0
+ a=0
+ L_Z0=0
+ L_EL=0
+ L_F0=0E6
+ PkZ=23327.0282
.ends 0805CS-060_imp

*======================================================================
* SPICE Model generated by Coilcraft
* Coilcraft Part Number : 0805CS-070
* Inductance = 7nH
*======================================================================
* Model Parameters:
*   Valid Frequency Range = 0.001GHz-7.9GHz
*   Ambient Temperature = 25 degC
*   Inductor Frequency Model
*   Use model for Frequency Domain simulations
*======================================================================
.subckt 0805CS-070_freq port1 port2 PARAMS: Cpar=0.065pF Ind=7.65nH
X1 port1 port2 Model2A PARAMS:
+ R1=5
+ R2=0.14
+ C= {Cpar}
+ K1=0.0000222
+ K2=0
+ K3= {Ind}
+ K4=0
+ K5=0
+ L=0
+ Is=0
+ a=0
+ L_Z0=0
+ L_EL=0
+ L_F0=0E6
+ PkZ=17119.8252
.ends 0805CS-070_freq

*======================================================================
* SPICE Model generated by Coilcraft
* Coilcraft Part Number : 0805CS-070
* Inductance = 7nH
*======================================================================
* Model Parameters:
*   Valid Frequency Range = 0.001GHz-7.9GHz
*   Ambient Temperature = 25 degC
*   Inductor Impedance Model
*   Use model for Time Domain simulations
*======================================================================
.subckt 0805CS-070_imp port1 port2 PARAMS: Cpar=0.065pF Ind=7.65nH
X1 port1 port2 Model1D PARAMS:
+ R1=5
+ R2=0.14
+ C= {Cpar}
+ K1=0.0000222
+ K2=0
+ K3= {Ind}
+ K4=0
+ K5=0
+ L=0
+ Is=0
+ a=0
+ L_Z0=0
+ L_EL=0
+ L_F0=0E6
+ PkZ=17119.8252
.ends 0805CS-070_imp

*======================================================================
* SPICE Model generated by Coilcraft
* Coilcraft Part Number : 0805CS-080
* Inductance = 8nH
*======================================================================
* Model Parameters:
*   Valid Frequency Range = 0.001GHz-7.1GHz
*   Ambient Temperature = 25 degC
*   Inductor Frequency Model
*   Use model for Frequency Domain simulations
*======================================================================
.subckt 0805CS-080_freq port1 port2 PARAMS: Cpar=0.076pF Ind=8.05nH
X1 port1 port2 Model2A PARAMS:
+ R1=7
+ R2=0.12
+ C= {Cpar}
+ K1=0.0000234
+ K2=0
+ K3= {Ind}
+ K4=0
+ K5=0
+ L=0
+ Is=0
+ a=0
+ L_Z0=0
+ L_EL=0
+ L_F0=0E6
+ PkZ=11935.1016
.ends 0805CS-080_freq

*======================================================================
* SPICE Model generated by Coilcraft
* Coilcraft Part Number : 0805CS-080
* Inductance = 8nH
*======================================================================
* Model Parameters:
*   Valid Frequency Range = 0.001GHz-7.1GHz
*   Ambient Temperature = 25 degC
*   Inductor Impedance Model
*   Use model for Time Domain simulations
*======================================================================
.subckt 0805CS-080_imp port1 port2 PARAMS: Cpar=0.076pF Ind=8.05nH
X1 port1 port2 Model1D PARAMS:
+ R1=7
+ R2=0.12
+ C= {Cpar}
+ K1=0.0000234
+ K2=0
+ K3= {Ind}
+ K4=0
+ K5=0
+ L=0
+ Is=0
+ a=0
+ L_Z0=0
+ L_EL=0
+ L_F0=0E6
+ PkZ=11935.1016
.ends 0805CS-080_imp

*======================================================================
* SPICE Model generated by Coilcraft
* Coilcraft Part Number : 0805CS-100
* Inductance = 10nH
*======================================================================
* Model Parameters:
*   Valid Frequency Range = 0.001GHz-8.1GHz
*   Ambient Temperature = 25 degC
*   Inductor Frequency Model
*   Use model for Frequency Domain simulations
*======================================================================
.subckt 0805CS-100_freq port1 port2 PARAMS: Cpar=0.047pF Ind=10.1nH
X1 port1 port2 Model2A PARAMS:
+ R1=6
+ R2=0.1
+ C= {Cpar}
+ K1=0.0000172
+ K2=0
+ K3= {Ind}
+ K4=0
+ K5=0
+ L=0
+ Is=0
+ a=0
+ L_Z0=0
+ L_EL=0
+ L_F0=0E6
+ PkZ=28769.9924
.ends 0805CS-100_freq

*======================================================================
* SPICE Model generated by Coilcraft
* Coilcraft Part Number : 0805CS-100
* Inductance = 10nH
*======================================================================
* Model Parameters:
*   Valid Frequency Range = 0.001GHz-8.1GHz
*   Ambient Temperature = 25 degC
*   Inductor Impedance Model
*   Use model for Time Domain simulations
*======================================================================
.subckt 0805CS-100_imp port1 port2 PARAMS: Cpar=0.047pF Ind=10.1nH
X1 port1 port2 Model1D PARAMS:
+ R1=6
+ R2=0.1
+ C= {Cpar}
+ K1=0.0000172
+ K2=0
+ K3= {Ind}
+ K4=0
+ K5=0
+ L=0
+ Is=0
+ a=0
+ L_Z0=0
+ L_EL=0
+ L_F0=0E6
+ PkZ=28769.9924
.ends 0805CS-100_imp

*======================================================================
* SPICE Model generated by Coilcraft
* Coilcraft Part Number : 0805CS-120
* Inductance = 12nH
*======================================================================
* Model Parameters:
*   Valid Frequency Range = 0.001GHz-7.1GHz
*   Ambient Temperature = 25 degC
*   Inductor Frequency Model
*   Use model for Frequency Domain simulations
*======================================================================
.subckt 0805CS-120_freq port1 port2 PARAMS: Cpar=0.051pF Ind=12nH
X1 port1 port2 Model2A PARAMS:
+ R1=12
+ R2=0.15
+ C= {Cpar}
+ K1=0.0000244
+ K2=0
+ K3= {Ind}
+ K4=0
+ K5=0
+ L=0
+ Is=0
+ a=0
+ L_Z0=0
+ L_EL=0
+ L_F0=0E6
+ PkZ=16863.8317
.ends 0805CS-120_freq

*======================================================================
* SPICE Model generated by Coilcraft
* Coilcraft Part Number : 0805CS-120
* Inductance = 12nH
*======================================================================
* Model Parameters:
*   Valid Frequency Range = 0.001GHz-7.1GHz
*   Ambient Temperature = 25 degC
*   Inductor Impedance Model
*   Use model for Time Domain simulations
*======================================================================
.subckt 0805CS-120_imp port1 port2 PARAMS: Cpar=0.051pF Ind=12nH
X1 port1 port2 Model1D PARAMS:
+ R1=12
+ R2=0.15
+ C= {Cpar}
+ K1=0.0000244
+ K2=0
+ K3= {Ind}
+ K4=0
+ K5=0
+ L=0
+ Is=0
+ a=0
+ L_Z0=0
+ L_EL=0
+ L_F0=0E6
+ PkZ=16863.8317
.ends 0805CS-120_imp

*======================================================================
* SPICE Model generated by Coilcraft
* Coilcraft Part Number : 0805CS-150
* Inductance = 15nH
*======================================================================
* Model Parameters:
*   Valid Frequency Range = 0.001GHz-4.7GHz
*   Ambient Temperature = 25 degC
*   Inductor Frequency Model
*   Use model for Frequency Domain simulations
*======================================================================
.subckt 0805CS-150_freq port1 port2 PARAMS: Cpar=0.096pF Ind=15nH
X1 port1 port2 Model2A PARAMS:
+ R1=10
+ R2=0.17
+ C= {Cpar}
+ K1=0.0000304
+ K2=0
+ K3= {Ind}
+ K4=0
+ K5=0
+ L=0
+ Is=0
+ a=0
+ L_Z0=0
+ L_EL=0
+ L_F0=0E6
+ PkZ=13059.3268
.ends 0805CS-150_freq

*======================================================================
* SPICE Model generated by Coilcraft
* Coilcraft Part Number : 0805CS-150
* Inductance = 15nH
*======================================================================
* Model Parameters:
*   Valid Frequency Range = 0.001GHz-4.7GHz
*   Ambient Temperature = 25 degC
*   Inductor Impedance Model
*   Use model for Time Domain simulations
*======================================================================
.subckt 0805CS-150_imp port1 port2 PARAMS: Cpar=0.096pF Ind=15nH
X1 port1 port2 Model1D PARAMS:
+ R1=10
+ R2=0.17
+ C= {Cpar}
+ K1=0.0000304
+ K2=0
+ K3= {Ind}
+ K4=0
+ K5=0
+ L=0
+ Is=0
+ a=0
+ L_Z0=0
+ L_EL=0
+ L_F0=0E6
+ PkZ=13059.3268
.ends 0805CS-150_imp

*======================================================================
* SPICE Model generated by Coilcraft
* Coilcraft Part Number : 0805CS-180
* Inductance = 18nH
*======================================================================
* Model Parameters:
*   Valid Frequency Range = 0.001GHz-5.4GHz
*   Ambient Temperature = 25 degC
*   Inductor Frequency Model
*   Use model for Frequency Domain simulations
*======================================================================
.subckt 0805CS-180_freq port1 port2 PARAMS: Cpar=0.059pF Ind=18nH
X1 port1 port2 Model2A PARAMS:
+ R1=10
+ R2=0.2
+ C= {Cpar}
+ K1=0.0000369
+ K2=0
+ K3= {Ind}
+ K4=0
+ K5=0
+ L=0
+ Is=0
+ a=0
+ L_Z0=0
+ L_EL=0
+ L_F0=0E6
+ PkZ=24258.4631
.ends 0805CS-180_freq

*======================================================================
* SPICE Model generated by Coilcraft
* Coilcraft Part Number : 0805CS-180
* Inductance = 18nH
*======================================================================
* Model Parameters:
*   Valid Frequency Range = 0.001GHz-5.4GHz
*   Ambient Temperature = 25 degC
*   Inductor Impedance Model
*   Use model for Time Domain simulations
*======================================================================
.subckt 0805CS-180_imp port1 port2 PARAMS: Cpar=0.059pF Ind=18nH
X1 port1 port2 Model1D PARAMS:
+ R1=10
+ R2=0.2
+ C= {Cpar}
+ K1=0.0000369
+ K2=0
+ K3= {Ind}
+ K4=0
+ K5=0
+ L=0
+ Is=0
+ a=0
+ L_Z0=0
+ L_EL=0
+ L_F0=0E6
+ PkZ=24258.4631
.ends 0805CS-180_imp

*======================================================================
* SPICE Model generated by Coilcraft
* Coilcraft Part Number : 0805CS-220
* Inductance = 22nH
*======================================================================
* Model Parameters:
*   Valid Frequency Range = 0.001GHz-3.9GHz
*   Ambient Temperature = 25 degC
*   Inductor Frequency Model
*   Use model for Frequency Domain simulations
*======================================================================
.subckt 0805CS-220_freq port1 port2 PARAMS: Cpar=0.093pF Ind=22nH
X1 port1 port2 Model2A PARAMS:
+ R1=12
+ R2=0.22
+ C= {Cpar}
+ K1=0.0000417
+ K2=0
+ K3= {Ind}
+ K4=0
+ K5=0
+ L=0
+ Is=0
+ a=0
+ L_Z0=0
+ L_EL=0
+ L_F0=0E6
+ PkZ=16349.6488
.ends 0805CS-220_freq

*======================================================================
* SPICE Model generated by Coilcraft
* Coilcraft Part Number : 0805CS-220
* Inductance = 22nH
*======================================================================
* Model Parameters:
*   Valid Frequency Range = 0.001GHz-3.9GHz
*   Ambient Temperature = 25 degC
*   Inductor Impedance Model
*   Use model for Time Domain simulations
*======================================================================
.subckt 0805CS-220_imp port1 port2 PARAMS: Cpar=0.093pF Ind=22nH
X1 port1 port2 Model1D PARAMS:
+ R1=12
+ R2=0.22
+ C= {Cpar}
+ K1=0.0000417
+ K2=0
+ K3= {Ind}
+ K4=0
+ K5=0
+ L=0
+ Is=0
+ a=0
+ L_Z0=0
+ L_EL=0
+ L_F0=0E6
+ PkZ=16349.6488
.ends 0805CS-220_imp

*======================================================================
* SPICE Model generated by Coilcraft
* Coilcraft Part Number : 0805CS-240
* Inductance = 24nH
*======================================================================
* Model Parameters:
*   Valid Frequency Range = 0.001GHz-3.5GHz
*   Ambient Temperature = 25 degC
*   Inductor Frequency Model
*   Use model for Frequency Domain simulations
*======================================================================
.subckt 0805CS-240_freq port1 port2 PARAMS: Cpar=0.11pF Ind=24nH
X1 port1 port2 Model2A PARAMS:
+ R1=12
+ R2=0.22
+ C= {Cpar}
+ K1=0.0000501
+ K2=0
+ K3= {Ind}
+ K4=0
+ K5=0
+ L=0
+ Is=0
+ a=0
+ L_Z0=0
+ L_EL=0
+ L_F0=0E6
+ PkZ=14758.9819
.ends 0805CS-240_freq

*======================================================================
* SPICE Model generated by Coilcraft
* Coilcraft Part Number : 0805CS-240
* Inductance = 24nH
*======================================================================
* Model Parameters:
*   Valid Frequency Range = 0.001GHz-3.5GHz
*   Ambient Temperature = 25 degC
*   Inductor Impedance Model
*   Use model for Time Domain simulations
*======================================================================
.subckt 0805CS-240_imp port1 port2 PARAMS: Cpar=0.11pF Ind=24nH
X1 port1 port2 Model1D PARAMS:
+ R1=12
+ R2=0.22
+ C= {Cpar}
+ K1=0.0000501
+ K2=0
+ K3= {Ind}
+ K4=0
+ K5=0
+ L=0
+ Is=0
+ a=0
+ L_Z0=0
+ L_EL=0
+ L_F0=0E6
+ PkZ=14758.9819
.ends 0805CS-240_imp

*======================================================================
* SPICE Model generated by Coilcraft
* Coilcraft Part Number : 0805CS-270
* Inductance = 27nH
*======================================================================
* Model Parameters:
*   Valid Frequency Range = 0.001GHz-4.2GHz
*   Ambient Temperature = 25 degC
*   Inductor Frequency Model
*   Use model for Frequency Domain simulations
*======================================================================
.subckt 0805CS-270_freq port1 port2 PARAMS: Cpar=0.067pF Ind=27nH
X1 port1 port2 Model2A PARAMS:
+ R1=14
+ R2=0.25
+ C= {Cpar}
+ K1=0.0000515
+ K2=0
+ K3= {Ind}
+ K4=0
+ K5=0
+ L=0
+ Is=0
+ a=0
+ L_Z0=0
+ L_EL=0
+ L_F0=0E6
+ PkZ=23503.4562
.ends 0805CS-270_freq

*======================================================================
* SPICE Model generated by Coilcraft
* Coilcraft Part Number : 0805CS-270
* Inductance = 27nH
*======================================================================
* Model Parameters:
*   Valid Frequency Range = 0.001GHz-4.2GHz
*   Ambient Temperature = 25 degC
*   Inductor Impedance Model
*   Use model for Time Domain simulations
*======================================================================
.subckt 0805CS-270_imp port1 port2 PARAMS: Cpar=0.067pF Ind=27nH
X1 port1 port2 Model1D PARAMS:
+ R1=14
+ R2=0.25
+ C= {Cpar}
+ K1=0.0000515
+ K2=0
+ K3= {Ind}
+ K4=0
+ K5=0
+ L=0
+ Is=0
+ a=0
+ L_Z0=0
+ L_EL=0
+ L_F0=0E6
+ PkZ=23503.4562
.ends 0805CS-270_imp

*======================================================================
* SPICE Model generated by Coilcraft
* Coilcraft Part Number : 0805CS-330
* Inductance = 33nH
*======================================================================
* Model Parameters:
*   Valid Frequency Range = 0.001GHz-3.1GHz
*   Ambient Temperature = 25 degC
*   Inductor Frequency Model
*   Use model for Frequency Domain simulations
*======================================================================
.subckt 0805CS-330_freq port1 port2 PARAMS: Cpar=0.097pF Ind=33nH
X1 port1 port2 Model2A PARAMS:
+ R1=12
+ R2=0.27
+ C= {Cpar}
+ K1=0.0000571
+ K2=0
+ K3= {Ind}
+ K4=0
+ K5=0
+ L=0
+ Is=0
+ a=0
+ L_Z0=0
+ L_EL=0
+ L_F0=0E6
+ PkZ=22642.796
.ends 0805CS-330_freq

*======================================================================
* SPICE Model generated by Coilcraft
* Coilcraft Part Number : 0805CS-330
* Inductance = 33nH
*======================================================================
* Model Parameters:
*   Valid Frequency Range = 0.001GHz-3.1GHz
*   Ambient Temperature = 25 degC
*   Inductor Impedance Model
*   Use model for Time Domain simulations
*======================================================================
.subckt 0805CS-330_imp port1 port2 PARAMS: Cpar=0.097pF Ind=33nH
X1 port1 port2 Model1D PARAMS:
+ R1=12
+ R2=0.27
+ C= {Cpar}
+ K1=0.0000571
+ K2=0
+ K3= {Ind}
+ K4=0
+ K5=0
+ L=0
+ Is=0
+ a=0
+ L_Z0=0
+ L_EL=0
+ L_F0=0E6
+ PkZ=22642.796
.ends 0805CS-330_imp

*======================================================================
* SPICE Model generated by Coilcraft
* Coilcraft Part Number : 0805CS-360
* Inductance = 36nH
*======================================================================
* Model Parameters:
*   Valid Frequency Range = 0.001GHz-2.7GHz
*   Ambient Temperature = 25 degC
*   Inductor Frequency Model
*   Use model for Frequency Domain simulations
*======================================================================
.subckt 0805CS-360_freq port1 port2 PARAMS: Cpar=0.126pF Ind=36nH
X1 port1 port2 Model2A PARAMS:
+ R1=13
+ R2=0.27
+ C= {Cpar}
+ K1=0.0000671
+ K2=0
+ K3= {Ind}
+ K4=0
+ K5=0
+ L=0
+ Is=0
+ a=0
+ L_Z0=0
+ L_EL=0
+ L_F0=0E6
+ PkZ=17575.3949
.ends 0805CS-360_freq

*======================================================================
* SPICE Model generated by Coilcraft
* Coilcraft Part Number : 0805CS-360
* Inductance = 36nH
*======================================================================
* Model Parameters:
*   Valid Frequency Range = 0.001GHz-2.7GHz
*   Ambient Temperature = 25 degC
*   Inductor Impedance Model
*   Use model for Time Domain simulations
*======================================================================
.subckt 0805CS-360_imp port1 port2 PARAMS: Cpar=0.126pF Ind=36nH
X1 port1 port2 Model1D PARAMS:
+ R1=13
+ R2=0.27
+ C= {Cpar}
+ K1=0.0000671
+ K2=0
+ K3= {Ind}
+ K4=0
+ K5=0
+ L=0
+ Is=0
+ a=0
+ L_Z0=0
+ L_EL=0
+ L_F0=0E6
+ PkZ=17575.3949
.ends 0805CS-360_imp

*======================================================================
* SPICE Model generated by Coilcraft
* Coilcraft Part Number : 0805CS-390
* Inductance = 39nH
*======================================================================
* Model Parameters:
*   Valid Frequency Range = 0.001GHz-3.4GHz
*   Ambient Temperature = 25 degC
*   Inductor Frequency Model
*   Use model for Frequency Domain simulations
*======================================================================
.subckt 0805CS-390_freq port1 port2 PARAMS: Cpar=0.082pF Ind=39nH
X1 port1 port2 Model2A PARAMS:
+ R1=13
+ R2=0.29
+ C= {Cpar}
+ K1=0.0000681
+ K2=0
+ K3= {Ind}
+ K4=0
+ K5=0
+ L=0
+ Is=0
+ a=0
+ L_Z0=0
+ L_EL=0
+ L_F0=0E6
+ PkZ=28634.9739
.ends 0805CS-390_freq

*======================================================================
* SPICE Model generated by Coilcraft
* Coilcraft Part Number : 0805CS-390
* Inductance = 39nH
*======================================================================
* Model Parameters:
*   Valid Frequency Range = 0.001GHz-3.4GHz
*   Ambient Temperature = 25 degC
*   Inductor Impedance Model
*   Use model for Time Domain simulations
*======================================================================
.subckt 0805CS-390_imp port1 port2 PARAMS: Cpar=0.082pF Ind=39nH
X1 port1 port2 Model1D PARAMS:
+ R1=13
+ R2=0.29
+ C= {Cpar}
+ K1=0.0000681
+ K2=0
+ K3= {Ind}
+ K4=0
+ K5=0
+ L=0
+ Is=0
+ a=0
+ L_Z0=0
+ L_EL=0
+ L_F0=0E6
+ PkZ=28634.9739
.ends 0805CS-390_imp

*======================================================================
* SPICE Model generated by Coilcraft
* Coilcraft Part Number : 0805CS-430
* Inductance = 43nH
*======================================================================
* Model Parameters:
*   Valid Frequency Range = 0.001GHz-3.2GHz
*   Ambient Temperature = 25 degC
*   Inductor Frequency Model
*   Use model for Frequency Domain simulations
*======================================================================
.subckt 0805CS-430_freq port1 port2 PARAMS: Cpar=0.084pF Ind=43nH
X1 port1 port2 Model2A PARAMS:
+ R1=15
+ R2=0.31
+ C= {Cpar}
+ K1=0.0000751
+ K2=0
+ K3= {Ind}
+ K4=0
+ K5=0
+ L=0
+ Is=0
+ a=0
+ L_Z0=0
+ L_EL=0
+ L_F0=0E6
+ PkZ=27142.2927
.ends 0805CS-430_freq

*======================================================================
* SPICE Model generated by Coilcraft
* Coilcraft Part Number : 0805CS-430
* Inductance = 43nH
*======================================================================
* Model Parameters:
*   Valid Frequency Range = 0.001GHz-3.2GHz
*   Ambient Temperature = 25 degC
*   Inductor Impedance Model
*   Use model for Time Domain simulations
*======================================================================
.subckt 0805CS-430_imp port1 port2 PARAMS: Cpar=0.084pF Ind=43nH
X1 port1 port2 Model1D PARAMS:
+ R1=15
+ R2=0.31
+ C= {Cpar}
+ K1=0.0000751
+ K2=0
+ K3= {Ind}
+ K4=0
+ K5=0
+ L=0
+ Is=0
+ a=0
+ L_Z0=0
+ L_EL=0
+ L_F0=0E6
+ PkZ=27142.2927
.ends 0805CS-430_imp

*======================================================================
* SPICE Model generated by Coilcraft
* Coilcraft Part Number : 0805CS-470
* Inductance = 47nH
*======================================================================
* Model Parameters:
*   Valid Frequency Range = 0.001GHz-2.7GHz
*   Ambient Temperature = 25 degC
*   Inductor Frequency Model
*   Use model for Frequency Domain simulations
*======================================================================
.subckt 0805CS-470_freq port1 port2 PARAMS: Cpar=0.111pF Ind=47nH
X1 port1 port2 Model2A PARAMS:
+ R1=10
+ R2=0.31
+ C= {Cpar}
+ K1=0.0000831
+ K2=0
+ K3= {Ind}
+ K4=0
+ K5=0
+ L=0
+ Is=0
+ a=0
+ L_Z0=0
+ L_EL=0
+ L_F0=0E6
+ PkZ=30464.7736
.ends 0805CS-470_freq

*======================================================================
* SPICE Model generated by Coilcraft
* Coilcraft Part Number : 0805CS-470
* Inductance = 47nH
*======================================================================
* Model Parameters:
*   Valid Frequency Range = 0.001GHz-2.7GHz
*   Ambient Temperature = 25 degC
*   Inductor Impedance Model
*   Use model for Time Domain simulations
*======================================================================
.subckt 0805CS-470_imp port1 port2 PARAMS: Cpar=0.111pF Ind=47nH
X1 port1 port2 Model1D PARAMS:
+ R1=10
+ R2=0.31
+ C= {Cpar}
+ K1=0.0000831
+ K2=0
+ K3= {Ind}
+ K4=0
+ K5=0
+ L=0
+ Is=0
+ a=0
+ L_Z0=0
+ L_EL=0
+ L_F0=0E6
+ PkZ=30464.7736
.ends 0805CS-470_imp

*======================================================================
* SPICE Model generated by Coilcraft
* Coilcraft Part Number : 0805CS-560
* Inductance = 56nH
*======================================================================
* Model Parameters:
*   Valid Frequency Range = 0.001GHz-2.7GHz
*   Ambient Temperature = 25 degC
*   Inductor Frequency Model
*   Use model for Frequency Domain simulations
*======================================================================
.subckt 0805CS-560_freq port1 port2 PARAMS: Cpar=0.094pF Ind=56nH
X1 port1 port2 Model2A PARAMS:
+ R1=13
+ R2=0.34