*======================================================================
* SPICE Model generated by Coilcraft
* Coilcraft Part Number : 1206CS-030
* Inductance = 3nH
*======================================================================
* Model Parameters:
*   Valid Frequency Range = 0.001GHz-12.8GHz
*   Ambient Temperature = 25 degC
*   Inductor Frequency Model
*   Use model for Frequency Domain simulations
*======================================================================
.subckt 1206CS-030_freq port1 port2 PARAMS: Cpar=0.051pF Ind=3.4nH
X1 port1 port2 Model2A PARAMS:
+ R1=12
+ R2=0.1
+ C= {Cpar}
+ K1=0.00000435
+ K2=0
+ K3= {Ind}
+ K4=0
+ K5=0
+ L=0
+ Is=0
+ a=0
+ L_Z0=0
+ L_EL=0
+ L_F0=0E6
+ PkZ=5348.51394
.ends 1206CS-030_freq

*======================================================================
* SPICE Model generated by Coilcraft
* Coilcraft Part Number : 1206CS-030
* Inductance = 3nH
*======================================================================
* Model Parameters:
*   Valid Frequency Range = 0.001GHz-12.8GHz
*   Ambient Temperature = 25 degC
*   Inductor Impedance Model
*   Use model for Time Domain simulations
*======================================================================
.subckt 1206CS-030_imp port1 port2 PARAMS: Cpar=0.051pF Ind=3.4nH
X1 port1 port2 Model1D PARAMS:
+ R1=12
+ R2=0.1
+ C= {Cpar}
+ K1=0.00000435
+ K2=0
+ K3= {Ind}
+ K4=0
+ K5=0
+ L=0
+ Is=0
+ a=0
+ L_Z0=0
+ L_EL=0
+ L_F0=0E6
+ PkZ=5348.51394
.ends 1206CS-030_imp

*======================================================================
* SPICE Model generated by Coilcraft
* Coilcraft Part Number : 1206CS-060
* Inductance = 6nH
*======================================================================
* Model Parameters:
*   Valid Frequency Range = 0.001GHz-10.9GHz
*   Ambient Temperature = 25 degC
*   Inductor Frequency Model
*   Use model for Frequency Domain simulations
*======================================================================
.subckt 1206CS-060_freq port1 port2 PARAMS: Cpar=0.035pF Ind=6.8nH
X1 port1 port2 Model2A PARAMS:
+ R1=11
+ R2=0.1
+ C= {Cpar}
+ K1=0.0000137
+ K2=0
+ K3= {Ind}
+ K4=0
+ K5=0
+ L=0
+ Is=0
+ a=0
+ L_Z0=0
+ L_EL=0
+ L_F0=0E6
+ PkZ=15683.997
.ends 1206CS-060_freq

*======================================================================
* SPICE Model generated by Coilcraft
* Coilcraft Part Number : 1206CS-060
* Inductance = 6nH
*======================================================================
* Model Parameters:
*   Valid Frequency Range = 0.001GHz-10.9GHz
*   Ambient Temperature = 25 degC
*   Inductor Impedance Model
*   Use model for Time Domain simulations
*======================================================================
.subckt 1206CS-060_imp port1 port2 PARAMS: Cpar=0.035pF Ind=6.8nH
X1 port1 port2 Model1D PARAMS:
+ R1=11
+ R2=0.1
+ C= {Cpar}
+ K1=0.0000137
+ K2=0
+ K3= {Ind}
+ K4=0
+ K5=0
+ L=0
+ Is=0
+ a=0
+ L_Z0=0
+ L_EL=0
+ L_F0=0E6
+ PkZ=15683.997
.ends 1206CS-060_imp

*======================================================================
* SPICE Model generated by Coilcraft
* Coilcraft Part Number : 1206CS-100
* Inductance = 10nH
*======================================================================
* Model Parameters:
*   Valid Frequency Range = 0.001GHz-7.9GHz
*   Ambient Temperature = 25 degC
*   Inductor Frequency Model
*   Use model for Frequency Domain simulations
*======================================================================
.subckt 1206CS-100_freq port1 port2 PARAMS: Cpar=0.043pF Ind=11.5nH
X1 port1 port2 Model2A PARAMS:
+ R1=11
+ R2=0.1
+ C= {Cpar}
+ K1=0.0000195
+ K2=0
+ K3= {Ind}
+ K4=0
+ K5=0
+ L=0
+ Is=0
+ a=0
+ L_Z0=0
+ L_EL=0
+ L_F0=0E6
+ PkZ=21147.1516
.ends 1206CS-100_freq

*======================================================================
* SPICE Model generated by Coilcraft
* Coilcraft Part Number : 1206CS-100
* Inductance = 10nH
*======================================================================
* Model Parameters:
*   Valid Frequency Range = 0.001GHz-7.9GHz
*   Ambient Temperature = 25 degC
*   Inductor Impedance Model
*   Use model for Time Domain simulations
*======================================================================
.subckt 1206CS-100_imp port1 port2 PARAMS: Cpar=0.043pF Ind=11.5nH
X1 port1 port2 Model1D PARAMS:
+ R1=11
+ R2=0.1
+ C= {Cpar}
+ K1=0.0000195
+ K2=0
+ K3= {Ind}
+ K4=0
+ K5=0
+ L=0
+ Is=0
+ a=0
+ L_Z0=0
+ L_EL=0
+ L_F0=0E6
+ PkZ=21147.1516
.ends 1206CS-100_imp

*======================================================================
* SPICE Model generated by Coilcraft
* Coilcraft Part Number : 1206CS-120
* Inductance = 12nH
*======================================================================
* Model Parameters:
*   Valid Frequency Range = 0.001GHz-4.9GHz
*   Ambient Temperature = 25 degC
*   Inductor Frequency Model
*   Use model for Frequency Domain simulations
*======================================================================
.subckt 1206CS-120_freq port1 port2 PARAMS: Cpar=0.086pF Ind=15nH
X1 port1 port2 Model2A PARAMS:
+ R1=11
+ R2=0.1
+ C= {Cpar}
+ K1=0.0000258
+ K2=0
+ K3= {Ind}
+ K4=0
+ K5=0
+ L=0
+ Is=0
+ a=0
+ L_Z0=0
+ L_EL=0
+ L_F0=0E6
+ PkZ=13719.8836
.ends 1206CS-120_freq

*======================================================================
* SPICE Model generated by Coilcraft
* Coilcraft Part Number : 1206CS-120
* Inductance = 12nH
*======================================================================
* Model Parameters:
*   Valid Frequency Range = 0.001GHz-4.9GHz
*   Ambient Temperature = 25 degC
*   Inductor Impedance Model
*   Use model for Time Domain simulations
*======================================================================
.subckt 1206CS-120_imp port1 port2 PARAMS: Cpar=0.086pF Ind=15nH
X1 port1 port2 Model1D PARAMS:
+ R1=11
+ R2=0.1
+ C= {Cpar}
+ K1=0.0000258
+ K2=0
+ K3= {Ind}
+ K4=0
+ K5=0
+ L=0
+ Is=0
+ a=0
+ L_Z0=0
+ L_EL=0
+ L_F0=0E6
+ PkZ=13719.8836
.ends 1206CS-120_imp

*======================================================================
* SPICE Model generated by Coilcraft
* Coilcraft Part Number : 1206CS-150
* Inductance = 15nH
*======================================================================
* Model Parameters:
*   Valid Frequency Range = 0.001GHz-5.9GHz
*   Ambient Temperature = 25 degC
*   Inductor Frequency Model
*   Use model for Frequency Domain simulations
*======================================================================
.subckt 1206CS-150_freq port1 port2 PARAMS: Cpar=0.05pF Ind=18nH
X1 port1 port2 Model2A PARAMS:
+ R1=8
+ R2=0.1
+ C= {Cpar}
+ K1=0.0000302
+ K2=0
+ K3= {Ind}
+ K4=0
+ K5=0
+ L=0
+ Is=0
+ a=0
+ L_Z0=0
+ L_EL=0
+ L_F0=0E6
+ PkZ=35298.7529
.ends 1206CS-150_freq

*======================================================================
* SPICE Model generated by Coilcraft
* Coilcraft Part Number : 1206CS-150
* Inductance = 15nH
*======================================================================
* Model Parameters:
*   Valid Frequency Range = 0.001GHz-5.9GHz
*   Ambient Temperature = 25 degC
*   Inductor Impedance Model
*   Use model for Time Domain simulations
*======================================================================
.subckt 1206CS-150_imp port1 port2 PARAMS: Cpar=0.05pF Ind=18nH
X1 port1 port2 Model1D PARAMS:
+ R1=8
+ R2=0.1
+ C= {Cpar}
+ K1=0.0000302
+ K2=0
+ K3= {Ind}
+ K4=0
+ K5=0
+ L=0
+ Is=0
+ a=0
+ L_Z0=0
+ L_EL=0
+ L_F0=0E6
+ PkZ=35298.7529
.ends 1206CS-150_imp

*======================================================================
* SPICE Model generated by Coilcraft
* Coilcraft Part Number : 1206CS-180
* Inductance = 18nH
*======================================================================
* Model Parameters:
*   Valid Frequency Range = 0.001GHz-4.4GHz
*   Ambient Temperature = 25 degC
*   Inductor Frequency Model
*   Use model for Frequency Domain simulations
*======================================================================
.subckt 1206CS-180_freq port1 port2 PARAMS: Cpar=0.078pF Ind=21nH
X1 port1 port2 Model2A PARAMS:
+ R1=12
+ R2=0.1
+ C= {Cpar}
+ K1=0.0000322
+ K2=0
+ K3= {Ind}
+ K4=0
+ K5=0
+ L=0
+ Is=0
+ a=0
+ L_Z0=0
+ L_EL=0
+ L_F0=0E6
+ PkZ=19209.7602
.ends 1206CS-180_freq

*======================================================================
* SPICE Model generated by Coilcraft
* Coilcraft Part Number : 1206CS-180
* Inductance = 18nH
*======================================================================
* Model Parameters:
*   Valid Frequency Range = 0.001GHz-4.4GHz
*   Ambient Temperature = 25 degC
*   Inductor Impedance Model
*   Use model for Time Domain simulations
*======================================================================
.subckt 1206CS-180_imp port1 port2 PARAMS: Cpar=0.078pF Ind=21nH
X1 port1 port2 Model1D PARAMS:
+ R1=12
+ R2=0.1
+ C= {Cpar}
+ K1=0.0000322
+ K2=0
+ K3= {Ind}
+ K4=0
+ K5=0
+ L=0
+ Is=0
+ a=0
+ L_Z0=0
+ L_EL=0
+ L_F0=0E6
+ PkZ=19209.7602
.ends 1206CS-180_imp

*======================================================================
* SPICE Model generated by Coilcraft
* Coilcraft Part Number : 1206CS-220
* Inductance = 22nH
*======================================================================
* Model Parameters:
*   Valid Frequency Range = 0.001GHz-3.6GHz
*   Ambient Temperature = 25 degC
*   Inductor Frequency Model
*   Use model for Frequency Domain simulations
*======================================================================
.subckt 1206CS-220_freq port1 port2 PARAMS: Cpar=0.101pF Ind=24nH
X1 port1 port2 Model2A PARAMS:
+ R1=14
+ R2=0.1
+ C= {Cpar}
+ K1=0.0000397
+ K2=0
+ K3= {Ind}
+ K4=0
+ K5=0
+ L=0
+ Is=0
+ a=0
+ L_Z0=0
+ L_EL=0
+ L_F0=0E6
+ PkZ=14622.8202
.ends 1206CS-220_freq

*======================================================================
* SPICE Model generated by Coilcraft
* Coilcraft Part Number : 1206CS-220
* Inductance = 22nH
*======================================================================
* Model Parameters:
*   Valid Frequency Range = 0.001GHz-3.6GHz
*   Ambient Temperature = 25 degC
*   Inductor Impedance Model
*   Use model for Time Domain simulations
*======================================================================
.subckt 1206CS-220_imp port1 port2 PARAMS: Cpar=0.101pF Ind=24nH
X1 port1 port2 Model1D PARAMS:
+ R1=14
+ R2=0.1
+ C= {Cpar}
+ K1=0.0000397
+ K2=0
+ K3= {Ind}
+ K4=0
+ K5=0
+ L=0
+ Is=0
+ a=0
+ L_Z0=0
+ L_EL=0
+ L_F0=0E6
+ PkZ=14622.8202
.ends 1206CS-220_imp

*======================================================================
* SPICE Model generated by Coilcraft
* Coilcraft Part Number : 1206CS-270
* Inductance = 27nH
*======================================================================
* Model Parameters:
*   Valid Frequency Range = 0.001GHz-3.6GHz
*   Ambient Temperature = 25 degC
*   Inductor Frequency Model
*   Use model for Frequency Domain simulations
*======================================================================
.subckt 1206CS-270_freq port1 port2 PARAMS: Cpar=0.082pF Ind=29nH
X1 port1 port2 Model2A PARAMS:
+ R1=14
+ R2=0.1
+ C= {Cpar}
+ K1=0.0000467
+ K2=0
+ K3= {Ind}
+ K4=0
+ K5=0
+ L=0
+ Is=0
+ a=0
+ L_Z0=0
+ L_EL=0
+ L_F0=0E6
+ PkZ=21224.0992
.ends 1206CS-270_freq

*======================================================================
* SPICE Model generated by Coilcraft
* Coilcraft Part Number : 1206CS-270
* Inductance = 27nH
*======================================================================
* Model Parameters:
*   Valid Frequency Range = 0.001GHz-3.6GHz
*   Ambient Temperature = 25 degC
*   Inductor Impedance Model
*   Use model for Time Domain simulations
*======================================================================
.subckt 1206CS-270_imp port1 port2 PARAMS: Cpar=0.082pF Ind=29nH
X1 port1 port2 Model1D PARAMS:
+ R1=14
+ R2=0.1
+ C= {Cpar}
+ K1=0.0000467
+ K2=0
+ K3= {Ind}
+ K4=0
+ K5=0
+ L=0
+ Is=0
+ a=0
+ L_Z0=0
+ L_EL=0
+ L_F0=0E6
+ PkZ=21224.0992
.ends 1206CS-270_imp

*======================================================================
* SPICE Model generated by Coilcraft
* Coilcraft Part Number : 1206CS-330
* Inductance = 33nH
*======================================================================
* Model Parameters:
*   Valid Frequency Range = 0.001GHz-2.6GHz
*   Ambient Temperature = 25 degC
*   Inductor Frequency Model
*   Use model for Frequency Domain simulations
*======================================================================
.subckt 1206CS-330_freq port1 port2 PARAMS: Cpar=0.131pF Ind=35nH
X1 port1 port2 Model2A PARAMS:
+ R1=10
+ R2=0.1
+ C= {Cpar}
+ K1=0.0000495
+ K2=0
+ K3= {Ind}
+ K4=0
+ K5=0
+ L=0
+ Is=0
+ a=0
+ L_Z0=0
+ L_EL=0
+ L_F0=0E6
+ PkZ=21551.0767
.ends 1206CS-330_freq

*======================================================================
* SPICE Model generated by Coilcraft
* Coilcraft Part Number : 1206CS-330
* Inductance = 33nH
*======================================================================
* Model Parameters:
*   Valid Frequency Range = 0.001GHz-2.6GHz
*   Ambient Temperature = 25 degC
*   Inductor Impedance Model
*   Use model for Time Domain simulations
*======================================================================
.subckt 1206CS-330_imp port1 port2 PARAMS: Cpar=0.131pF Ind=35nH
X1 port1 port2 Model1D PARAMS:
+ R1=10
+ R2=0.1
+ C= {Cpar}
+ K1=0.0000495
+ K2=0
+ K3= {Ind}
+ K4=0
+ K5=0
+ L=0
+ Is=0
+ a=0
+ L_Z0=0
+ L_EL=0
+ L_F0=0E6
+ PkZ=21551.0767
.ends 1206CS-330_imp

*======================================================================
* SPICE Model generated by Coilcraft
* Coilcraft Part Number : 1206CS-390
* Inductance = 39nH
*======================================================================
* Model Parameters:
*   Valid Frequency Range = 0.001GHz-3.1GHz
*   Ambient Temperature = 25 degC
*   Inductor Frequency Model
*   Use model for Frequency Domain simulations
*======================================================================
.subckt 1206CS-390_freq port1 port2 PARAMS: Cpar=0.086pF Ind=39nH
X1 port1 port2 Model2A PARAMS:
+ R1=12
+ R2=0.1
+ C= {Cpar}
+ K1=0.0000621
+ K2=0
+ K3= {Ind}
+ K4=0
+ K5=0
+ L=0
+ Is=0
+ a=0
+ L_Z0=0
+ L_EL=0
+ L_F0=0E6
+ PkZ=29731.4866
.ends 1206CS-390_freq

*======================================================================
* SPICE Model generated by Coilcraft
* Coilcraft Part Number : 1206CS-390
* Inductance = 39nH
*======================================================================
* Model Parameters:
*   Valid Frequency Range = 0.001GHz-3.1GHz
*   Ambient Temperature = 25 degC
*   Inductor Impedance Model
*   Use model for Time Domain simulations
*======================================================================
.subckt 1206CS-390_imp port1 port2 PARAMS: Cpar=0.086pF Ind=39nH
X1 port1 port2 Model1D PARAMS:
+ R1=12
+ R2=0.1
+ C= {Cpar}
+ K1=0.0000621
+ K2=0
+ K3= {Ind}
+ K4=0
+ K5=0
+ L=0
+ Is=0
+ a=0
+ L_Z0=0
+ L_EL=0
+ L_F0=0E6
+ PkZ=29731.4866
.ends 1206CS-390_imp

*======================================================================
* SPICE Model generated by Coilcraft
* Coilcraft Part Number : 1206CS-470
* Inductance = 47nH
*======================================================================
* Model Parameters:
*   Valid Frequency Range = 0.001GHz-2.4GHz
*   Ambient Temperature = 25 degC
*   Inductor Frequency Model
*   Use model for Frequency Domain simulations
*======================================================================
.subckt 1206CS-470_freq port1 port2 PARAMS: Cpar=0.115pF Ind=47nH
X1 port1 port2 Model2A PARAMS:
+ R1=14
+ R2=0.1
+ C= {Cpar}
+ K1=0.0000731
+ K2=0
+ K3= {Ind}
+ K4=0
+ K5=0
+ L=0
+ Is=0
+ a=0
+ L_Z0=0
+ L_EL=0
+ L_F0=0E6
+ PkZ=23492.7377
.ends 1206CS-470_freq

*======================================================================
* SPICE Model generated by Coilcraft
* Coilcraft Part Number : 1206CS-470
* Inductance = 47nH
*======================================================================
* Model Parameters:
*   Valid Frequency Range = 0.001GHz-2.4GHz
*   Ambient Temperature = 25 degC
*   Inductor Impedance Model
*   Use model for Time Domain simulations
*======================================================================
.subckt 1206CS-470_imp port1 port2 PARAMS: Cpar=0.115pF Ind=47nH
X1 port1 port2 Model1D PARAMS:
+ R1=14
+ R2=0.1
+ C= {Cpar}
+ K1=0.0000731
+ K2=0
+ K3= {Ind}
+ K4=0
+ K5=0
+ L=0
+ Is=0
+ a=0
+ L_Z0=0
+ L_EL=0
+ L_F0=0E6
+ PkZ=23492.7377
.ends 1206CS-470_imp

*======================================================================
* SPICE Model generated by Coilcraft
* Coilcraft Part Number : 1206CS-560
* Inductance = 56nH
*======================================================================
* Model Parameters:
*   Valid Frequency Range = 0.001GHz-2.3GHz
*   Ambient Temperature = 25 degC
*   Inductor Frequency Model
*   Use model for Frequency Domain simulations
*======================================================================
.subckt 1206CS-560_freq port1 port2 PARAMS: Cpar=0.107pF Ind=56nH
X1 port1 port2 Model2A PARAMS:
+ R1=13
+ R2=0.1
+ C= {Cpar}
+ K1=0.00009
+ K2=0
+ K3= {Ind}
+ K4=0
+ K5=0
+ L=0
+ Is=0
+ a=0
+ L_Z0=0
+ L_EL=0
+ L_F0=0E6
+ PkZ=30645.8057
.ends 1206CS-560_freq

*======================================================================
* SPICE Model generated by Coilcraft
* Coilcraft Part Number : 1206CS-560
* Inductance = 56nH
*======================================================================
* Model Parameters:
*   Valid Frequency Range = 0.001GHz-2.3GHz
*   Ambient Temperature = 25 degC
*   Inductor Impedance Model
*   Use model for Time Domain simulations
*======================================================================
.subckt 1206CS-560_imp port1 port2 PARAMS: Cpar=0.107pF Ind=56nH
X1 port1 port2 Model1D PARAMS:
+ R1=13
+ R2=0.1
+ C= {Cpar}
+ K1=0.00009
+ K2=0
+ K3= {Ind}
+ K4=0
+ K5=0
+ L=0
+ Is=0
+ a=0
+ L_Z0=0
+ L_EL=0
+ L_F0=0E6
+ PkZ=30645.8057
.ends 1206CS-560_imp

*======================================================================
* SPICE Model generated by Coilcraft
* Coilcraft Part Number : 1206CS-680
* Inductance = 68nH
*======================================================================
* Model Parameters:
*   Valid Frequency Range = 0.001GHz-1.9GHz
*   Ambient Temperature = 25 degC
*   Inductor Frequency Model
*   Use model for Frequency Domain simulations
*======================================================================
.subckt 1206CS-680_freq port1 port2 PARAMS: Cpar=0.127pF Ind=68nH
X1 port1 port2 Model2A PARAMS:
+ R1=10
+ R2=0.2
+ C= {Cpar}
+ K1=0.000103
+ K2=0
+ K3= {Ind}
+ K4=0
+ K5=0
+ L=0
+ Is=0
+ a=0
+ L_Z0=0
+ L_EL=0
+ L_F0=0E6
+ PkZ=37545.5383
.ends 1206CS-680_freq

*======================================================================
* SPICE Model generated by Coilcraft
* Coilcraft Part Number : 1206CS-680
* Inductance = 68nH
*======================================================================
* Model Parameters:
*   Valid Frequency Range = 0.001GHz-1.9GHz
*   Ambient Temperature = 25 degC
*   Inductor Impedance Model
*   Use model for Time Domain simulations
*======================================================================
.subckt 1206CS-680_imp port1 port2 PARAMS: Cpar=0.127pF Ind=68nH
X1 port1 port2 Model1D PARAMS:
+ R1=10
+ R2=0.2
+ C= {Cpar}
+ K1=0.000103
+ K2=0
+ K3= {Ind}
+ K4=0
+ K5=0
+ L=0
+ Is=0
+ a=0
+ L_Z0=0
+ L_EL=0
+ L_F0=0E6
+ PkZ=37545.5383
.ends 1206CS-680_imp

*======================================================================
* SPICE Model generated by Coilcraft
* Coilcraft Part Number : 1206CS-820
* Inductance = 82nH
*======================================================================
* Model Parameters:
*   Valid Frequency Range = 0.001GHz-2.1GHz
*   Ambient Temperature = 25 degC
*   Inductor Frequency Model
*   Use model for Frequency Domain simulations
*======================================================================
.subckt 1206CS-820_freq port1 port2 PARAMS: Cpar=0.089pF Ind=83nH
X1 port1 port2 Model2A PARAMS:
+ R1=12
+ R2=0.2
+ C= {Cpar}
+ K1=0.00013
+ K2=0
+ K3= {Ind}
+ K4=0
+ K5=0
+ L=0
+ Is=0
+ a=0
+ L_Z0=0
+ L_EL=0
+ L_F0=0E6
+ PkZ=53010.4508
.ends 1206CS-820_freq

*======================================================================
* SPICE Model generated by Coilcraft
* Coilcraft Part Number : 1206CS-820
* Inductance = 82nH
*======================================================================
* Model Parameters:
*   Valid Frequency Range = 0.001GHz-2.1GHz
*   Ambient Temperature = 25 degC
*   Inductor Impedance Model
*   Use model for Time Domain simulations
*======================================================================
.subckt 1206CS-820_imp port1 port2 PARAMS: Cpar=0.089pF Ind=83nH
X1 port1 port2 Model1D PARAMS:
+ R1=12
+ R2=0.2
+ C= {Cpar}
+ K1=0.00013
+ K2=0
+ K3= {Ind}
+ K4=0
+ K5=0
+ L=0
+ Is=0
+ a=0
+ L_Z0=0
+ L_EL=0
+ L_F0=0E6
+ PkZ=53010.4508
.ends 1206CS-820_imp

*======================================================================
* SPICE Model generated by Coilcraft
* Coilcraft Part Number : 1206CS-101
* Inductance = 100nH
*======================================================================
* Model Parameters:
*   Valid Frequency Range = 0.001GHz-1.9GHz
*   Ambient Temperature = 25 degC
*   Inductor Frequency Model
*   Use model for Frequency Domain simulations
*======================================================================
.subckt 1206CS-101_freq port1 port2 PARAMS: Cpar=0.091pF Ind=100nH
X1 port1 port2 Model2A PARAMS:
+ R1=10
+ R2=0.2
+ C= {Cpar}
+ K1=0.000157
+ K2=0
+ K3= {Ind}
+ K4=0
+ K5=0
+ L=0
+ Is=0
+ a=0
+ L_Z0=0
+ L_EL=0
+ L_F0=0E6
+ PkZ=66958.3017
.ends 1206CS-101_freq

*======================================================================
* SPICE Model generated by Coilcraft
* Coilcraft Part Number : 1206CS-101
* Inductance = 100nH
*======================================================================
* Model Parameters:
*   Valid Frequency Range = 0.001GHz-1.9GHz
*   Ambient Temperature = 25 degC
*   Inductor Impedance Model
*   Use model for Time Domain simulations
*======================================================================
.subckt 1206CS-101_imp port1 port2 PARAMS: Cpar=0.091pF Ind=100nH
X1 port1 port2 Model1D PARAMS:
+ R1=10
+ R2=0.2
+ C= {Cpar}
+ K1=0.000157
+ K2=0
+ K3= {Ind}
+ K4=0
+ K5=0
+ L=0
+ Is=0
+ a=0
+ L_Z0=0
+ L_EL=0
+ L_F0=0E6
+ PkZ=66958.3017
.ends 1206CS-101_imp

*======================================================================
* SPICE Model generated by Coilcraft
* Coilcraft Part Number : 1206CS-121
* Inductance = 120nH
*======================================================================
* Model Parameters:
*   Valid Frequency Range = 0.001GHz-2.15GHz
*   Ambient Temperature = 25 degC
*   Inductor Frequency Model
*   Use model for Frequency Domain simulations
*======================================================================
.subckt 1206CS-121_freq port1 port2 PARAMS: Cpar=0.052pF Ind=118nH
X1 port1 port2 Model2A PARAMS:
+ R1=18
+ R2=0.2
+ C= {Cpar}
+ K1=0.000173
+ K2=0
+ K3= {Ind}
+ K4=0
+ K5=0
+ L=0
+ Is=0
+ a=0
+ L_Z0=0
+ L_EL=0
+ L_F0=0E6
+ PkZ=87969.0519
.ends 1206CS-121_freq

*======================================================================
* SPICE Model generated by Coilcraft
* Coilcraft Part Number : 1206CS-121
* Inductance = 120nH
*======================================================================
* Model Parameters:
*   Valid Frequency Range = 0.001GHz-2.15GHz
*   Ambient Temperature = 25 degC
*   Inductor Impedance Model
*   Use model for Time Domain simulations
*======================================================================
.subckt 1206CS-121_imp port1 port2 PARAMS: Cpar=0.052pF Ind=118nH
X1 port1 port2 Model1D PARAMS:
+ R1=18
+ R2=0.2
+ C= {Cpar}
+ K1=0.000173
+ K2=0
+ K3= {Ind}
+ K4=0
+ K5=0
+ L=0
+ Is=0
+ a=0
+ L_Z0=0
+ L_EL=0
+ L_F0=0E6
+ PkZ=87969.0519
.ends 1206CS-121_imp

*======================================================================
* SPICE Model generated by Coilcraft
* Coilcraft Part Number : 1206CS-151
* Inductance = 150nH
*======================================================================
* Model Parameters:
*   Valid Frequency Range = 0.001GHz-1.6GHz
*   Ambient Temperature = 25 degC
*   Inductor Frequency Model
*   Use model for Frequency Domain simulations
*======================================================================
.subckt 1206CS-151_freq port1 port2 PARAMS: Cpar=0.089pF Ind=140nH
X1 port1 port2 Model2A PARAMS:
+ R1=20
+ R2=0.3
+ C= {Cpar}
+ K1=0.000191
+ K2=0
+ K3= {Ind}
+ K4=0
+ K5=0
+ L=0
+ Is=0
+ a=0
+ L_Z0=0
+ L_EL=0
+ L_F0=0E6
+ PkZ=57814.9309
.ends 1206CS-151_freq

*======================================================================
* SPICE Model generated by Coilcraft
* Coilcraft Part Number : 1206CS-151
* Inductance = 150nH
*======================================================================
* Model Parameters:
*   Valid Frequency Range = 0.001GHz-1.6GHz
*   Ambient Temperature = 25 degC
*   Inductor Impedance Model
*   Use model for Time Domain simulations
*======================================================================
.subckt 1206CS-151_imp port1 port2 PARAMS: Cpar=0.089pF Ind=140nH
X1 port1 port2 Model1D PARAMS:
+ R1=20
+ R2=0.3
+ C= {Cpar}
+ K1=0.000191
+ K2=0
+ K3= {Ind}
+ K4=0
+ K5=0
+ L=0
+ Is=0
+ a=0
+ L_Z0=0
+ L_EL=0
+ L_F0=0E6
+ PkZ=57814.9309
.ends 1206CS-151_imp

*======================================================================
* SPICE Model generated by Coilcraft
* Coilcraft Part Number : 1206CS-181
* Inductance = 180nH
*======================================================================
* Model Parameters:
*   Valid Frequency Range = 0.001GHz-1.6GHz
*   Ambient Temperature = 25 degC
*   Inductor Frequency Model
*   Use model for Frequency Domain simulations
*======================================================================
.subckt 1206CS-181_freq port1 port2 PARAMS: Cpar=0.067pF Ind=183nH
X1 port1 port2 Model2A PARAMS:
+ R1=15
+ R2=0.4
+ C= {Cpar}
+ K1=0.000267
+ K2=0
+ K3= {Ind}
+ K4=0
+ K5=0
+ L=0
+ Is=0
+ a=0
+ L_Z0=0
+ L_EL=0
+ L_F0=0E6
+ PkZ=108727.695
.ends 1206CS-181_freq

*======================================================================
* SPICE Model generated by Coilcraft
* Coilcraft Part Number : 1206CS-181
* Inductance = 180nH
*======================================================================
* Model Parameters:
*   Valid Frequency Range = 0.001GHz-1.6GHz
*   Ambient Temperature = 25 degC
*   Inductor Impedance Model
*   Use model for Time Domain simulations
*======================================================================
.subckt 1206CS-181_imp port1 port2 PARAMS: Cpar=0.067pF Ind=183nH
X1 port1 port2 Model1D PARAMS:
+ R1=15
+ R2=0.4
+ C= {Cpar}
+ K1=0.000267
+ K2=0
+ K3= {Ind}
+ K4=0
+ K5=0
+ L=0
+ Is=0
+ a=0
+ L_Z0=0
+ L_EL=0
+ L_F0=0E6
+ PkZ=108727.695
.ends 1206CS-181_imp

*======================================================================
* SPICE Model generated by Coilcraft
* Coilcraft Part Number : 1206CS-221
* Inductance = 220nH
*======================================================================
* Model Parameters:
*   Valid Frequency Range = 0.001GHz-1.3GHz
*   Ambient Temperature = 25 degC
*   Inductor Frequency Model
*   Use model for Frequency Domain simulations
*======================================================================
.subckt 1206CS-221_freq port1 port2 PARAMS: Cpar=0.082pF Ind=223nH
X1 port1 port2 Model2A PARAMS:
+ R1=25
+ R2=0.5
+ C= {Cpar}
+ K1=0.000315
+ K2=0
+ K3= {Ind}
+ K4=0
+ K5=0
+ L=0
+ Is=0
+ a=0
+ L_Z0=0
+ L_EL=0
+ L_F0=0E6
+ PkZ=75960.7795
.ends 1206CS-221_freq

*======================================================================
* SPICE Model generated by Coilcraft
* Coilcraft Part Number : 1206CS-221
* Inductance = 220nH
*======================================================================
* Model Parameters:
*   Valid Frequency Range = 0.001GHz-1.3GHz
*   Ambient Temperature = 25 degC
*   Inductor Impedance Model
*   Use model for Time Domain simulations
*======================================================================
.subckt 1206CS-221_imp port1 port2 PARAMS: Cpar=0.082pF Ind=223nH
X1 port1 port2 Model1D PARAMS:
+ R1=25
+ R2=0.5
+ C= {Cpar}
+ K1=0.000315
+ K2=0
+ K3= {Ind}
+ K4=0
+ K5=0
+ L=0
+ Is=0
+ a=0
+ L_Z0=0
+ L_EL=0
+ L_F0=0E6
+ PkZ=75960.7795
.ends 1206CS-221_imp

*======================================================================
* SPICE Model generated by Coilcraft
* Coilcraft Part Number : 1206CS-271
* Inductance = 270nH
*======================================================================
* Model Parameters:
*   Valid Frequency Range = 0.001GHz-1.3GHz
*   Ambient Temperature = 25 degC
*   Inductor Frequency Model
*   Use model for Frequency Domain simulations
*======================================================================
.subckt 1206CS-271_freq port1 port2 PARAMS: Cpar=0.074pF Ind=280nH
X1 port1 port2 Model2A PARAMS:
+ R1=25
+ R2=0.5
+ C= {Cpar}