*======================================================================
* SPICE Model generated by Coilcraft
* Coilcraft Part Number : 1812PS-102
* Inductance = 1uH
*======================================================================
* Model Parameters:
*   Valid Frequency Range = 0.1MHz-1000MHz
*   Ambient Temperature = 25 degC
*   Inductor Frequency Model
*   Use model for Frequency Domain simulations
*======================================================================
.subckt 1812PS-102_freq port1 port2 PARAMS: Cpar=0.15pF Ind=1uH
X1 port1 port2 Model1B PARAMS:
+ R1=60
+ R2=0.054
+ C= {Cpar}
+ K1=0.000001
+ K2=0.064
+ K3= {Ind}
+ K4=1E-06
+ K5=0.000001
+ L=0
+ Is=0
+ a=0
+ L_Z0=0
+ L_EL=0
+ L_F0=0E6
+ PkZ=1282.46492
.ends 1812PS-102_freq

*======================================================================
* SPICE Model generated by Coilcraft
* Coilcraft Part Number : 1812PS-102
* Inductance = 1uH
*======================================================================
* Model Parameters:
*   Valid Frequency Range = 0.1MHz-1000MHz
*   Ambient Temperature = 25 degC
*   Inductor Impedance Model
*   Use model for Time Domain simulations
*======================================================================
.subckt 1812PS-102_imp port1 port2 PARAMS: Cpar=0.15pF Ind=1uH
X1 port1 port2 Model1D PARAMS:
+ R1=60
+ R2=0.054
+ C= {Cpar}
+ K1=0.000001
+ K2=0.064
+ K3= {Ind}
+ K4=1E-06
+ K5=0.000001
+ L=0
+ Is=0
+ a=0
+ L_Z0=0
+ L_EL=0
+ L_F0=0E6
+ PkZ=1282.46492
.ends 1812PS-102_imp

*======================================================================
* SPICE Model generated by Coilcraft
* Coilcraft Part Number : 1812PS-122
* Inductance = 1.2uH
*======================================================================
* Model Parameters:
*   Valid Frequency Range = 0.1MHz-1000MHz
*   Ambient Temperature = 25 degC
*   Inductor Frequency Model
*   Use model for Frequency Domain simulations
*======================================================================
.subckt 1812PS-122_freq port1 port2 PARAMS: Cpar=0.21pF Ind=1.2uH
X1 port1 port2 Model1B PARAMS:
+ R1=55
+ R2=0.06
+ C= {Cpar}
+ K1=0.000001
+ K2=0.075
+ K3= {Ind}
+ K4=0.000803
+ K5=0.000062
+ L=0
+ Is=0
+ a=0
+ L_Z0=0
+ L_EL=0
+ L_F0=0E6
+ PkZ=1320.59657
.ends 1812PS-122_freq

*======================================================================
* SPICE Model generated by Coilcraft
* Coilcraft Part Number : 1812PS-122
* Inductance = 1.2uH
*======================================================================
* Model Parameters:
*   Valid Frequency Range = 0.1MHz-1000MHz
*   Ambient Temperature = 25 degC
*   Inductor Impedance Model
*   Use model for Time Domain simulations
*======================================================================
.subckt 1812PS-122_imp port1 port2 PARAMS: Cpar=0.209pF Ind=1.2uH
X1 port1 port2 Model1D PARAMS:
+ R1=55
+ R2=0.06
+ C= {Cpar}
+ K1=0.000001
+ K2=0.075
+ K3= {Ind}
+ K4=0.000803
+ K5=0.000062
+ L=0
+ Is=0
+ a=0
+ L_Z0=0
+ L_EL=0
+ L_F0=0E6
+ PkZ=1320.59657
.ends 1812PS-122_imp

*======================================================================
* SPICE Model generated by Coilcraft
* Coilcraft Part Number : 1812PS-152
* Inductance = 1.5uH
*======================================================================
* Model Parameters:
*   Valid Frequency Range = 0.1MHz-1000MHz
*   Ambient Temperature = 25 degC
*   Inductor Frequency Model
*   Use model for Frequency Domain simulations
*======================================================================
.subckt 1812PS-152_freq port1 port2 PARAMS: Cpar=0.18pF Ind=1.5uH
X1 port1 port2 Model1B PARAMS:
+ R1=55
+ R2=0.06
+ C= {Cpar}
+ K1=0.000001
+ K2=0.076
+ K3= {Ind}
+ K4=0.000781
+ K5=0.0000616
+ L=0
+ Is=0
+ a=0
+ L_Z0=0
+ L_EL=0
+ L_F0=0E6
+ PkZ=1320.20199
.ends 1812PS-152_freq

*======================================================================
* SPICE Model generated by Coilcraft
* Coilcraft Part Number : 1812PS-152
* Inductance = 1.5uH
*======================================================================
* Model Parameters:
*   Valid Frequency Range = 0.1MHz-1000MHz
*   Ambient Temperature = 25 degC
*   Inductor Impedance Model
*   Use model for Time Domain simulations
*======================================================================
.subckt 1812PS-152_imp port1 port2 PARAMS: Cpar=0.179pF Ind=1.5uH
X1 port1 port2 Model1D PARAMS:
+ R1=55
+ R2=0.06
+ C= {Cpar}
+ K1=0.000001
+ K2=0.076
+ K3= {Ind}
+ K4=0.000781
+ K5=0.0000616
+ L=0
+ Is=0
+ a=0
+ L_Z0=0
+ L_EL=0
+ L_F0=0E6
+ PkZ=1320.20199
.ends 1812PS-152_imp

*======================================================================
* SPICE Model generated by Coilcraft
* Coilcraft Part Number : 1812PS-222
* Inductance = 2.2uH
*======================================================================
* Model Parameters:
*   Valid Frequency Range = 0.1MHz-1000MHz
*   Ambient Temperature = 25 degC
*   Inductor Frequency Model
*   Use model for Frequency Domain simulations
*======================================================================
.subckt 1812PS-222_freq port1 port2 PARAMS: Cpar=0.2pF Ind=2.2uH
X1 port1 port2 Model1B PARAMS:
+ R1=90
+ R2=0.07
+ C= {Cpar}
+ K1=0.000001
+ K2=0.137
+ K3= {Ind}
+ K4=1E-06
+ K5=0.0000517
+ L=0
+ Is=0
+ a=0
+ L_Z0=0
+ L_EL=0
+ L_F0=0E6
+ PkZ=2085.98309
.ends 1812PS-222_freq

*======================================================================
* SPICE Model generated by Coilcraft
* Coilcraft Part Number : 1812PS-222
* Inductance = 2.2uH
*======================================================================
* Model Parameters:
*   Valid Frequency Range = 0.1MHz-1000MHz
*   Ambient Temperature = 25 degC
*   Inductor Impedance Model
*   Use model for Time Domain simulations
*======================================================================
.subckt 1812PS-222_imp port1 port2 PARAMS: Cpar=0.2pF Ind=2.2uH
X1 port1 port2 Model1D PARAMS:
+ R1=90
+ R2=0.07
+ C= {Cpar}
+ K1=0.000001
+ K2=0.137
+ K3= {Ind}
+ K4=1E-06
+ K5=0.0000517
+ L=0
+ Is=0
+ a=0
+ L_Z0=0
+ L_EL=0
+ L_F0=0E6
+ PkZ=2085.98309
.ends 1812PS-222_imp

*======================================================================
* SPICE Model generated by Coilcraft
* Coilcraft Part Number : 1812PS-272
* Inductance = 2.7uH
*======================================================================
* Model Parameters:
*   Valid Frequency Range = 0.1MHz-750MHz
*   Ambient Temperature = 25 degC
*   Inductor Frequency Model
*   Use model for Frequency Domain simulations
*======================================================================
.subckt 1812PS-272_freq port1 port2 PARAMS: Cpar=0.22pF Ind=2.7uH
X1 port1 port2 Model1B PARAMS:
+ R1=60
+ R2=0.08
+ C= {Cpar}
+ K1=0.000001
+ K2=0.158
+ K3= {Ind}
+ K4=0.000001
+ K5=0.0000516
+ L=0
+ Is=0
+ a=0
+ L_Z0=0
+ L_EL=0
+ L_F0=0E6
+ PkZ=2245.65181
.ends 1812PS-272_freq

*======================================================================
* SPICE Model generated by Coilcraft
* Coilcraft Part Number : 1812PS-272
* Inductance = 2.7uH
*======================================================================
* Model Parameters:
*   Valid Frequency Range = 0.1MHz-750MHz
*   Ambient Temperature = 25 degC
*   Inductor Impedance Model
*   Use model for Time Domain simulations
*======================================================================
.subckt 1812PS-272_imp port1 port2 PARAMS: Cpar=0.22pF Ind=2.7uH
X1 port1 port2 Model1D PARAMS:
+ R1=60
+ R2=0.08
+ C= {Cpar}
+ K1=0.000001
+ K2=0.158
+ K3= {Ind}
+ K4=0.000001
+ K5=0.0000516
+ L=0
+ Is=0
+ a=0
+ L_Z0=0
+ L_EL=0
+ L_F0=0E6
+ PkZ=2245.65181
.ends 1812PS-272_imp

*======================================================================
* SPICE Model generated by Coilcraft
* Coilcraft Part Number : 1812PS-332
* Inductance = 3.3uH
*======================================================================
* Model Parameters:
*   Valid Frequency Range = 0.1MHz-750MHz
*   Ambient Temperature = 25 degC
*   Inductor Frequency Model
*   Use model for Frequency Domain simulations
*======================================================================
.subckt 1812PS-332_freq port1 port2 PARAMS: Cpar=0.27pF Ind=3.3uH
X1 port1 port2 Model1B PARAMS:
+ R1=35
+ R2=0.09
+ C= {Cpar}
+ K1=0.000001
+ K2=0.22
+ K3= {Ind}
+ K4=0.000001
+ K5=0.0000515
+ L=0
+ Is=0
+ a=0
+ L_Z0=0
+ L_EL=0
+ L_F0=0E6
+ PkZ=2833.59737
.ends 1812PS-332_freq

*======================================================================
* SPICE Model generated by Coilcraft
* Coilcraft Part Number : 1812PS-332
* Inductance = 3.3uH
*======================================================================
* Model Parameters:
*   Valid Frequency Range = 0.1MHz-750MHz
*   Ambient Temperature = 25 degC
*   Inductor Impedance Model
*   Use model for Time Domain simulations
*======================================================================
.subckt 1812PS-332_imp port1 port2 PARAMS: Cpar=0.27pF Ind=3.3uH
X1 port1 port2 Model1D PARAMS:
+ R1=35
+ R2=0.09
+ C= {Cpar}
+ K1=0.000001
+ K2=0.22
+ K3= {Ind}
+ K4=0.000001
+ K5=0.0000515
+ L=0
+ Is=0
+ a=0
+ L_Z0=0
+ L_EL=0
+ L_F0=0E6
+ PkZ=2833.59737
.ends 1812PS-332_imp

*======================================================================
* SPICE Model generated by Coilcraft
* Coilcraft Part Number : 1812PS-392
* Inductance = 3.9uH
*======================================================================
* Model Parameters:
*   Valid Frequency Range = 0.1MHz-750MHz
*   Ambient Temperature = 25 degC
*   Inductor Frequency Model
*   Use model for Frequency Domain simulations
*======================================================================
.subckt 1812PS-392_freq port1 port2 PARAMS: Cpar=0.22pF Ind=3.9uH
X1 port1 port2 Model1B PARAMS:
+ R1=25
+ R2=0.11
+ C= {Cpar}
+ K1=0.000001
+ K2=0.306
+ K3= {Ind}
+ K4=0.00148
+ K5=0.0000514
+ L=0
+ Is=0
+ a=0
+ L_Z0=0
+ L_EL=0
+ L_F0=0E6
+ PkZ=3991.95062
.ends 1812PS-392_freq

*======================================================================
* SPICE Model generated by Coilcraft
* Coilcraft Part Number : 1812PS-392
* Inductance = 3.9uH
*======================================================================
* Model Parameters:
*   Valid Frequency Range = 0.1MHz-750MHz
*   Ambient Temperature = 25 degC
*   Inductor Impedance Model
*   Use model for Time Domain simulations
*======================================================================
.subckt 1812PS-392_imp port1 port2 PARAMS: Cpar=0.219pF Ind=3.9uH
X1 port1 port2 Model1D PARAMS:
+ R1=25
+ R2=0.11
+ C= {Cpar}
+ K1=0.000001
+ K2=0.306
+ K3= {Ind}
+ K4=0.00148
+ K5=0.0000514
+ L=0
+ Is=0
+ a=0
+ L_Z0=0
+ L_EL=0
+ L_F0=0E6
+ PkZ=3991.95062
.ends 1812PS-392_imp

*======================================================================
* SPICE Model generated by Coilcraft
* Coilcraft Part Number : 1812PS-472
* Inductance = 4.7uH
*======================================================================
* Model Parameters:
*   Valid Frequency Range = 0.1MHz-750MHz
*   Ambient Temperature = 25 degC
*   Inductor Frequency Model
*   Use model for Frequency Domain simulations
*======================================================================
.subckt 1812PS-472_freq port1 port2 PARAMS: Cpar=0.32pF Ind=4.7uH
X1 port1 port2 Model1B PARAMS:
+ R1=25
+ R2=0.11
+ C= {Cpar}
+ K1=0.000001
+ K2=0.355
+ K3= {Ind}
+ K4=0.00147
+ K5=0.0000516
+ L=0
+ Is=0
+ a=0
+ L_Z0=0
+ L_EL=0
+ L_F0=0E6
+ PkZ=4019.26953
.ends 1812PS-472_freq

*======================================================================
* SPICE Model generated by Coilcraft
* Coilcraft Part Number : 1812PS-472
* Inductance = 4.7uH
*======================================================================
* Model Parameters:
*   Valid Frequency Range = 0.1MHz-750MHz
*   Ambient Temperature = 25 degC
*   Inductor Impedance Model
*   Use model for Time Domain simulations
*======================================================================
.subckt 1812PS-472_imp port1 port2 PARAMS: Cpar=0.319pF Ind=4.7uH
X1 port1 port2 Model1D PARAMS:
+ R1=25
+ R2=0.11
+ C= {Cpar}
+ K1=0.000001
+ K2=0.355
+ K3= {Ind}
+ K4=0.00147
+ K5=0.0000516
+ L=0
+ Is=0
+ a=0
+ L_Z0=0
+ L_EL=0
+ L_F0=0E6
+ PkZ=4019.26953
.ends 1812PS-472_imp

*======================================================================
* SPICE Model generated by Coilcraft
* Coilcraft Part Number : 1812PS-562
* Inductance = 5.6uH
*======================================================================
* Model Parameters:
*   Valid Frequency Range = 0.1MHz-750MHz
*   Ambient Temperature = 25 degC
*   Inductor Frequency Model
*   Use model for Frequency Domain simulations
*======================================================================
.subckt 1812PS-562_freq port1 port2 PARAMS: Cpar=0.29pF Ind=5.6uH
X1 port1 port2 Model1B PARAMS:
+ R1=22
+ R2=0.12
+ C= {Cpar}
+ K1=0.000001
+ K2=0.494
+ K3= {Ind}
+ K4=0.00145
+ K5=0.0000514
+ L=0
+ Is=0
+ a=0
+ L_Z0=0
+ L_EL=0
+ L_F0=0E6
+ PkZ=5489.2717
.ends 1812PS-562_freq

*======================================================================
* SPICE Model generated by Coilcraft
* Coilcraft Part Number : 1812PS-562
* Inductance = 5.6uH
*======================================================================
* Model Parameters:
*   Valid Frequency Range = 0.1MHz-750MHz
*   Ambient Temperature = 25 degC
*   Inductor Impedance Model
*   Use model for Time Domain simulations
*======================================================================
.subckt 1812PS-562_imp port1 port2 PARAMS: Cpar=0.289pF Ind=5.6uH
X1 port1 port2 Model1D PARAMS:
+ R1=22
+ R2=0.12
+ C= {Cpar}
+ K1=0.000001
+ K2=0.494
+ K3= {Ind}
+ K4=0.00145
+ K5=0.0000514
+ L=0
+ Is=0
+ a=0
+ L_Z0=0
+ L_EL=0
+ L_F0=0E6
+ PkZ=5489.2717
.ends 1812PS-562_imp

*======================================================================
* SPICE Model generated by Coilcraft
* Coilcraft Part Number : 1812PS-682
* Inductance = 6.8uH
*======================================================================
* Model Parameters:
*   Valid Frequency Range = 0.1MHz-500MHz
*   Ambient Temperature = 25 degC
*   Inductor Frequency Model
*   Use model for Frequency Domain simulations
*======================================================================
.subckt 1812PS-682_freq port1 port2 PARAMS: Cpar=0.24pF Ind=6.8uH
X1 port1 port2 Model1B PARAMS:
+ R1=26
+ R2=0.13
+ C= {Cpar}
+ K1=0.000001
+ K2=0.518
+ K3= {Ind}
+ K4=0.00141
+ K5=0.000051
+ L=0
+ Is=0
+ a=0
+ L_Z0=0
+ L_EL=0
+ L_F0=0E6
+ PkZ=5753.90476
.ends 1812PS-682_freq

*======================================================================
* SPICE Model generated by Coilcraft
* Coilcraft Part Number : 1812PS-682
* Inductance = 6.8uH
*======================================================================
* Model Parameters:
*   Valid Frequency Range = 0.1MHz-500MHz
*   Ambient Temperature = 25 degC
*   Inductor Impedance Model
*   Use model for Time Domain simulations
*======================================================================
.subckt 1812PS-682_imp port1 port2 PARAMS: Cpar=0.24pF Ind=6.8uH
X1 port1 port2 Model1D PARAMS:
+ R1=26
+ R2=0.13
+ C= {Cpar}
+ K1=0.000001
+ K2=0.518
+ K3= {Ind}
+ K4=0.00141
+ K5=0.000051
+ L=0
+ Is=0
+ a=0
+ L_Z0=0
+ L_EL=0
+ L_F0=0E6
+ PkZ=5753.90476
.ends 1812PS-682_imp

*======================================================================
* SPICE Model generated by Coilcraft
* Coilcraft Part Number : 1812PS-103
* Inductance = 10uH
*======================================================================
* Model Parameters:
*   Valid Frequency Range = 0.1MHz-500MHz
*   Ambient Temperature = 25 degC
*   Inductor Frequency Model
*   Use model for Frequency Domain simulations
*======================================================================
.subckt 1812PS-103_freq port1 port2 PARAMS: Cpar=0.28pF Ind=10uH
X1 port1 port2 Model1B PARAMS:
+ R1=29
+ R2=0.17
+ C= {Cpar}
+ K1=0.000001
+ K2=0.741
+ K3= {Ind}
+ K4=0.0014
+ K5=0.0000509
+ L=0
+ Is=0
+ a=0
+ L_Z0=0
+ L_EL=0
+ L_F0=0E6
+ PkZ=7186.74953
.ends 1812PS-103_freq

*======================================================================
* SPICE Model generated by Coilcraft
* Coilcraft Part Number : 1812PS-103
* Inductance = 10uH
*======================================================================
* Model Parameters:
*   Valid Frequency Range = 0.1MHz-500MHz
*   Ambient Temperature = 25 degC
*   Inductor Impedance Model
*   Use model for Time Domain simulations
*======================================================================
.subckt 1812PS-103_imp port1 port2 PARAMS: Cpar=0.28pF Ind=10uH
X1 port1 port2 Model1D PARAMS:
+ R1=29
+ R2=0.17
+ C= {Cpar}
+ K1=0.000001
+ K2=0.741
+ K3= {Ind}
+ K4=0.0014
+ K5=0.0000509
+ L=0
+ Is=0
+ a=0
+ L_Z0=0
+ L_EL=0
+ L_F0=0E6
+ PkZ=7186.74953
.ends 1812PS-103_imp

*======================================================================
* SPICE Model generated by Coilcraft
* Coilcraft Part Number : 1812PS-153
* Inductance = 15uH
*======================================================================
* Model Parameters:
*   Valid Frequency Range = 0.1MHz-500MHz
*   Ambient Temperature = 25 degC
*   Inductor Frequency Model
*   Use model for Frequency Domain simulations
*======================================================================
.subckt 1812PS-153_freq port1 port2 PARAMS: Cpar=0.26pF Ind=15uH
X1 port1 port2 Model1B PARAMS:
+ R1=65
+ R2=0.26
+ C= {Cpar}
+ K1=0.000001
+ K2=1.3
+ K3= {Ind}
+ K4=0.000001
+ K5=0.0000331
+ L=0
+ Is=0
+ a=0
+ L_Z0=0
+ L_EL=0
+ L_F0=0E6
+ PkZ=11519.233
.ends 1812PS-153_freq

*======================================================================
* SPICE Model generated by Coilcraft
* Coilcraft Part Number : 1812PS-153
* Inductance = 15uH
*======================================================================
* Model Parameters:
*   Valid Frequency Range = 0.1MHz-500MHz
*   Ambient Temperature = 25 degC
*   Inductor Impedance Model
*   Use model for Time Domain simulations
*======================================================================
.subckt 1812PS-153_imp port1 port2 PARAMS: Cpar=0.26pF Ind=15uH
X1 port1 port2 Model1D PARAMS:
+ R1=65
+ R2=0.26
+ C= {Cpar}
+ K1=0.000001
+ K2=1.3
+ K3= {Ind}
+ K4=0.000001
+ K5=0.0000331
+ L=0
+ Is=0
+ a=0
+ L_Z0=0
+ L_EL=0
+ L_F0=0E6
+ PkZ=11519.233
.ends 1812PS-153_imp

*======================================================================
* SPICE Model generated by Coilcraft
* Coilcraft Part Number : 1812PS-223
* Inductance = 22uH
*======================================================================
* Model Parameters:
*   Valid Frequency Range = 0.1MHz-150MHz
*   Ambient Temperature = 25 degC
*   Inductor Frequency Model
*   Use model for Frequency Domain simulations
*======================================================================
.subckt 1812PS-223_freq port1 port2 PARAMS: Cpar=0.6pF Ind=22uH
X1 port1 port2 Model1B PARAMS:
+ R1=45
+ R2=0.33
+ C= {Cpar}
+ K1=0.000001
+ K2=2.28
+ K3= {Ind}
+ K4=0.000001
+ K5=0.0000351
+ L=0
+ Is=0
+ a=0
+ L_Z0=0
+ L_EL=0
+ L_F0=0E6
+ PkZ=14816.336
.ends 1812PS-223_freq

*======================================================================
* SPICE Model generated by Coilcraft
* Coilcraft Part Number : 1812PS-223
* Inductance = 22uH
*======================================================================
* Model Parameters:
*   Valid Frequency Range = 0.1MHz-150MHz
*   Ambient Temperature = 25 degC
*   Inductor Impedance Model
*   Use model for Time Domain simulations
*======================================================================
.subckt 1812PS-223_imp port1 port2 PARAMS: Cpar=0.6pF Ind=22uH
X1 port1 port2 Model1D PARAMS:
+ R1=45
+ R2=0.33
+ C= {Cpar}
+ K1=0.000001
+ K2=2.28
+ K3= {Ind}
+ K4=0.000001
+ K5=0.0000351
+ L=0
+ Is=0
+ a=0
+ L_Z0=0
+ L_EL=0
+ L_F0=0E6
+ PkZ=14816.336
.ends 1812PS-223_imp

*======================================================================
* SPICE Model generated by Coilcraft
* Coilcraft Part Number : 1812PS-333
* Inductance = 33uH
*======================================================================
* Model Parameters:
*   Valid Frequency Range = 0.1MHz-150MHz
*   Ambient Temperature = 25 degC
*   Inductor Frequency Model
*   Use model for Frequency Domain simulations
*======================================================================
.subckt 1812PS-333_freq port1 port2 PARAMS: Cpar=0.97pF Ind=33uH
X1 port1 port2 Model1B PARAMS:
+ R1=30
+ R2=0.4
+ C= {Cpar}
+ K1=0.000001
+ K2=3.37
+ K3= {Ind}
+ K4=0.278
+ K5=8.39E-07
+ L=0
+ Is=0
+ a=0
+ L_Z0=0
+ L_EL=0
+ L_F0=0E6
+ PkZ=17706.5934
.ends 1812PS-333_freq

*======================================================================
* SPICE Model generated by Coilcraft
* Coilcraft Part Number : 1812PS-333
* Inductance = 33uH
*======================================================================
* Model Parameters:
*   Valid Frequency Range = 0.1MHz-150MHz
*   Ambient Temperature = 25 degC
*   Inductor Impedance Model
*   Use model for Time Domain simulations
*======================================================================
.subckt 1812PS-333_imp port1 port2 PARAMS: Cpar=0.944pF Ind=33uH
X1 port1 port2 Model1D PARAMS:
+ R1=30
+ R2=0.4
+ C= {Cpar}
+ K1=0.000001
+ K2=3.37
+ K3= {Ind}
+ K4=0.278
+ K5=8.39E-07
+ L=0
+ Is=0
+ a=0
+ L_Z0=0
+ L_EL=0
+ L_F0=0E6
+ PkZ=17706.5934
.ends 1812PS-333_imp

*======================================================================
* SPICE Model generated by Coilcraft
* Coilcraft Part Number : 1812PS-393
* Inductance = 39uH
*======================================================================
* Model Parameters:
*   Valid Frequency Range = 0.1MHz-100MHz
*   Ambient Temperature = 25 degC
*   Inductor Frequency Model
*   Use model for Frequency Domain simulations
*======================================================================
.subckt 1812PS-393_freq port1 port2 PARAMS: Cpar=1.08pF Ind=39uH
X1 port1 port2 Model1B PARAMS:
+ R1=55
+ R2=0.56
+ C= {Cpar}
+ K1=0.000001
+ K2=4.1
+ K3= {Ind}
+ K4=0.683
+ K5=0.000009
+ L=0
+ Is=0
+ a=0
+ L_Z0=0
+ L_EL=0
+ L_F0=0E6
+ PkZ=20110.1809
.ends 1812PS-393_freq

*======================================================================
* SPICE Model generated by Coilcraft
* Coilcraft Part Number : 1812PS-393
* Inductance = 39uH
*======================================================================
* Model Parameters:
*   Valid Frequency Range = 0.1MHz-100MHz
*   Ambient Temperature = 25 degC
*   Inductor Impedance Model
*   Use model for Time Domain simulations
*======================================================================
.subckt 1812PS-393_imp port1 port2 PARAMS: Cpar=0.978pF Ind=39uH
X1 port1 port2 Model1D PARAMS:
+ R1=55
+ R2=0.56
+ C= {Cpar}
+ K1=0.000001
+ K2=4.1
+ K3= {Ind}
+ K4=0.683
+ K5=0.000009
+ L=0
+ Is=0
+ a=0
+ L_Z0=0
+ L_EL=0
+ L_F0=0E6
+ PkZ=20110.1809
.ends 1812PS-393_imp

*======================================================================
* SPICE Model generated by Coilcraft
* Coilcraft Part Number : 1812PS-473
* Inductance = 47uH
*======================================================================
* Model Parameters:
*   Valid Frequency Range = 0.1MHz-100MHz
*   Ambient Temperature = 25 degC
*   Inductor Frequency Model
*   Use model for Frequency Domain simulations
*======================================================================
.subckt 1812PS-473_freq port1 port2 PARAMS: Cpar=0.83pF Ind=47uH
X1 port1 port2 Model1B PARAMS:
+ R1=30
+ R2=0.87
+ C= {Cpar}
+ K1=0.000001
+ K2=4.63
+ K3= {Ind}
+ K4=0.647
+ K5=0.00000972
+ L=0
+ Is=0
+ a=0
+ L_Z0=0
+ L_EL=0
+ L_F0=0E6
+ PkZ=23517.1382
.ends 1812PS-473_freq

*======================================================================
* SPICE Model generated by Coilcraft
* Coilcraft Part Number : 1812PS-473
* Inductance = 47uH
*======================================================================
* Model Parameters:
*   Valid Frequency Range = 0.1MHz-100MHz
*   Ambient Temperature = 25 degC
*   Inductor Impedance Model
*   Use model for Time Domain simulations
*======================================================================
.subckt 1812PS-473_imp port1 port2 PARAMS: Cpar=0.767pF Ind=47uH
X1 port1 port2 Model1D PARAMS:
+ R1=30
+ R2=0.87
+ C= {Cpar}
+ K1=0.000001
+ K2=4.63
+ K3= {Ind}
+ K4=0.647
+ K5=0.00000972
+ L=0
+ Is=0
+ a=0
+ L_Z0=0
+ L_EL=0
+ L_F0=0E6
+ PkZ=23517.1382
.ends 1812PS-473_imp

*======================================================================
* SPICE Model generated by Coilcraft
* Coilcraft Part Number : 1812PS-683
* Inductance = 68uH
*======================================================================
* Model Parameters:
*   Valid Frequency Range = 0.1MHz-100MHz
*   Ambient Temperature = 25 degC
*   Inductor Frequency Model
*   Use model for Frequency Domain simulations
*======================================================================
.subckt 1812PS-683_freq port1 port2 PARAMS: Cpar=1.13pF Ind=68uH
X1 port1 port2 Model1B PARAMS:
+ R1=35
+ R2=1.1
+ C= {Cpar}
+ K1=0.000001
+ K2=7.52
+ K3= {Ind}
+ K4=0.000001
+ K5=0.000001
+ L=0
+ Is=0
+ a=0
+ L_Z0=0
+ L_EL=0
+ L_F0=0E6
+ PkZ=31457.64
.ends 1812PS-683_freq

*======================================================================
* SPICE Model generated by Coilcraft
* Coilcraft Part Number : 1812PS-683
* Inductance = 68uH
*======================================================================
* Model Parameters:
*   Valid Frequency Range = 0.1MHz-100MHz
*   Ambient Temperature = 25 degC
*   Inductor Impedance Model
*   Use model for Time Domain simulations
*======================================================================
.subckt 1812PS-683_imp port1 port2 PARAMS: Cpar=1.13pF Ind=68uH
X1 port1 port2 Model1D PARAMS:
+ R1=35
+ R2=1.1
+ C= {Cpar}
+ K1=0.000001
+ K2=7.52
+ K3= {Ind}
+ K4=0.000001
+ K5=0.000001
+ L=0
+ Is=0
+ a=0
+ L_Z0=0
+ L_EL=0
+ L_F0=0E6
+ PkZ=31457.64
.ends 1812PS-683_imp

*======================================================================
* SPICE Model generated by Coilcraft
* Coilcraft Part Number : 1812PS-823
* Inductance = 82uH
*======================================================================
* Model Parameters:
*   Valid Frequency Range = 0.1MHz-100MHz
*   Ambient Temperature = 25 degC
*   Inductor Frequency Model
*   Use model for Frequency Domain simulations
*======================================================================
.subckt 1812PS-823_freq port1 port2 PARAMS: Cpar=0.84pF Ind=82uH
X1 port1 port2 Model1B PARAMS:
+ R1=55
+ R2=1.3
+ C= {Cpar}
+ K1=0.000001
+ K2=7.51
+ K3= {Ind}
+ K4=0.000001
+ K5=0.000001
+ L=0
+ Is=0
+ a=0
+ L_Z0=0
+ L_EL=0
+ L_F0=0E6
+ PkZ=32290.1728
.ends 1812PS-823_freq

*======================================================================
* SPICE Model generated by Coilcraft
* Coilcraft Part Number : 1812PS-823
* Inductance = 82uH
*======================================================================
* Model Parameters:
*   Valid Frequency Range = 0.1MHz-100MHz
*   Ambient Temperature = 25 degC
*   Inductor Impedance Model
*   Use model for Time Domain simulations
*======================================================================
.subckt 1812PS-823_imp port1 port2 PARAMS: Cpar=0.84pF Ind=82uH
X1 port1 port2 Model1D PARAMS:
+ R1=55
+ R2=1.3
+ C= {Cpar}
+ K1=0.000001
+ K2=7.51
+ K3= {Ind}
+ K4=0.000001
+ K5=0.000001
+ L=0
+ Is=0
+ a=0
+ L_Z0=0
+ L_EL=0
+ L_F0=0E6
+ PkZ=32290.1728
.ends 1812PS-823_imp

*======================================================================
* SPICE Model generated by Coilcraft
* Coilcraft Part Number : 1812PS-104
* Inductance = 100uH
*======================================================================
* Model Parameters:
*   Valid Frequency Range = 0.1MHz-100MHz
*   Ambient Temperature = 25 degC
*   Inductor Frequency Model
*   Use model for Frequency Domain simulations
*======================================================================
.subckt 1812PS-104_freq port1 port2 PARAMS: Cpar=1.6pF Ind=100uH
X1 port1 port2 Model1B PARAMS:
+ R1=40
+ R2=1.3
+ C= {Cpar}
+ K1=0.000001
+ K2=13.98
+ K3= {Ind}
+ K4=0.000001
+ K5=0.000001
+ L=0
+ Is=0
+ a=0
+ L_Z0=0
+ L_EL=0
+ L_F0=0E6
+ PkZ=48065.0165
.ends 1812PS-104_freq

*======================================================================
* SPICE Model generated by Coilcraft
* Coilcraft Part Number : 1812PS-104
* Inductance = 100uH
*======================================================================
* Model Parameters:
*   Valid Frequency Range = 0.1MHz-100MHz
*   Ambient Temperature = 25 degC
*   Inductor Impedance Model
*   Use model for Time Domain simulations
*======================================================================
.subckt 1812PS-104_imp port1 port2 PARAMS: Cpar=1.6pF Ind=100uH
X1 port1 port2 Model1D PARAMS:
+ R1=40
+ R2=1.3
+ C= {Cpar}
+ K1=0.000001
+ K2=13.98
+ K3= {Ind}
+ K4=0.000001
+ K5=0.000001
+ L=0
+ Is=0
+ a=0
+ L_Z0=0
+ L_EL=0
+ L_F0=0E6
+ PkZ=48065.0165
.ends 1812PS-104_imp

*======================================================================