*======================================================================
* SPICE Model generated by Coilcraft
* Coilcraft Part Number : LPS4040-223
* Inductance = 22uH
*======================================================================
* Model Parameters:
*   Valid Frequency Range = 0.1MHz-50MHz
*   Ambient Temperature = 25 degC
*   Inductor Frequency Model
*   Use model for Frequency Domain simulations
*======================================================================
.subckt LPS4040-223_freq port1 port2 PARAMS: Cpar=2.19pF Ind=22uH
X1 port1 port2 Model1A PARAMS:
+ R1=65
+ R2=0.21
+ C= {Cpar}
+ K1=0.000001
+ K2=3
+ K3= {Ind}
+ K4=0.000001
+ K5=0.000001
+ L=0
+ Is=0
+ a=0
+ L_Z0=0
+ L_EL=0
+ L_F0=0E6
+ PkZ=13144.1776
.ends LPS4040-223_freq

*======================================================================
* SPICE Model generated by Coilcraft
* Coilcraft Part Number : LPS4040-223
* Inductance = 22uH
*======================================================================
* Model Parameters:
*   Valid Frequency Range = 0.1MHz-50MHz
*   Ambient Temperature = 25 degC
*   Inductor Impedance Model
*   Use model for Time Domain simulations
*======================================================================
.subckt LPS4040-223_imp port1 port2 PARAMS: Cpar=2.19pF Ind=22uH
X1 port1 port2 Model1D PARAMS:
+ R1=65
+ R2=0.21
+ C= {Cpar}
+ K1=0.000001
+ K2=3
+ K3= {Ind}
+ K4=0.000001
+ K5=0.000001
+ L=0
+ Is=0
+ a=0
+ L_Z0=0
+ L_EL=0
+ L_F0=0E6
+ PkZ=13144.1776
.ends LPS4040-223_imp

*======================================================================
* SPICE Model generated by Coilcraft
* Coilcraft Part Number : LPS4040-683
* Inductance = 68uH
*======================================================================
* Model Parameters:
*   Valid Frequency Range = 0.1MHz-14MHz
*   Ambient Temperature = 25 degC
*   Inductor Frequency Model
*   Use model for Frequency Domain simulations
*======================================================================
.subckt LPS4040-683_freq port1 port2 PARAMS: Cpar=4.2pF Ind=68uH
X1 port1 port2 Model1A PARAMS:
+ R1=85
+ R2=0.31
+ C= {Cpar}
+ K1=0.000001
+ K2=15
+ K3= {Ind}
+ K4=1.9
+ K5=0.00001
+ L=0
+ Is=0
+ a=0
+ L_Z0=0
+ L_EL=0
+ L_F0=0E6
+ PkZ=37011.2533
.ends LPS4040-683_freq

*======================================================================
* SPICE Model generated by Coilcraft
* Coilcraft Part Number : LPS4040-683
* Inductance = 68uH
*======================================================================
* Model Parameters:
*   Valid Frequency Range = 0.1MHz-14MHz
*   Ambient Temperature = 25 degC
*   Inductor Impedance Model
*   Use model for Time Domain simulations
*======================================================================
.subckt LPS4040-683_imp port1 port2 PARAMS: Cpar=3.667pF Ind=68uH
X1 port1 port2 Model1D PARAMS:
+ R1=85
+ R2=0.31
+ C= {Cpar}
+ K1=0.000001
+ K2=15
+ K3= {Ind}
+ K4=1.9
+ K5=0.00001
+ L=0
+ Is=0
+ a=0
+ L_Z0=0
+ L_EL=0
+ L_F0=0E6
+ PkZ=37011.2533
.ends LPS4040-683_imp

*======================================================================
* SPICE Model generated by Coilcraft
* Coilcraft Part Number : LPS4040-823
* Inductance = 82uH
*======================================================================
* Model Parameters:
*   Valid Frequency Range = 0.1MHz-14MHz
*   Ambient Temperature = 25 degC
*   Inductor Frequency Model
*   Use model for Frequency Domain simulations
*======================================================================
.subckt LPS4040-823_freq port1 port2 PARAMS: Cpar=4pF Ind=82uH
X1 port1 port2 Model1A PARAMS:
+ R1=80
+ R2=0.345
+ C= {Cpar}
+ K1=0.000001
+ K2=17
+ K3= {Ind}
+ K4=2.3
+ K5=0.00001
+ L=0
+ Is=0
+ a=0
+ L_Z0=0
+ L_EL=0
+ L_F0=0E6
+ PkZ=42270.4874
.ends LPS4040-823_freq

*======================================================================
* SPICE Model generated by Coilcraft
* Coilcraft Part Number : LPS4040-823
* Inductance = 82uH
*======================================================================
* Model Parameters:
*   Valid Frequency Range = 0.1MHz-14MHz
*   Ambient Temperature = 25 degC
*   Inductor Impedance Model
*   Use model for Time Domain simulations
*======================================================================
.subckt LPS4040-823_imp port1 port2 PARAMS: Cpar=3.498pF Ind=82uH
X1 port1 port2 Model1D PARAMS:
+ R1=80
+ R2=0.345
+ C= {Cpar}
+ K1=0.000001
+ K2=17
+ K3= {Ind}
+ K4=2.3
+ K5=0.00001
+ L=0
+ Is=0
+ a=0
+ L_Z0=0
+ L_EL=0
+ L_F0=0E6
+ PkZ=42270.4874
.ends LPS4040-823_imp

*======================================================================
* SPICE Model generated by Coilcraft
* Coilcraft Part Number : LPS4040-104
* Inductance = 100uH
*======================================================================
* Model Parameters:
*   Valid Frequency Range = 0.1MHz-14MHz
*   Ambient Temperature = 25 degC
*   Inductor Frequency Model
*   Use model for Frequency Domain simulations
*======================================================================
.subckt LPS4040-104_freq port1 port2 PARAMS: Cpar=3.7pF Ind=100uH
X1 port1 port2 Model1A PARAMS:
+ R1=100
+ R2=0.475
+ C= {Cpar}
+ K1=0.000001
+ K2=28
+ K3= {Ind}
+ K4=0.0001
+ K5=0.00001
+ L=0
+ Is=0
+ a=0
+ L_Z0=0
+ L_EL=0
+ L_F0=0E6
+ PkZ=62054.7869
.ends LPS4040-104_freq

*======================================================================
* SPICE Model generated by Coilcraft
* Coilcraft Part Number : LPS4040-104
* Inductance = 100uH
*======================================================================
* Model Parameters:
*   Valid Frequency Range = 0.1MHz-14MHz
*   Ambient Temperature = 25 degC
*   Inductor Impedance Model
*   Use model for Time Domain simulations
*======================================================================
.subckt LPS4040-104_imp port1 port2 PARAMS: Cpar=3.7pF Ind=100uH
X1 port1 port2 Model1D PARAMS:
+ R1=100
+ R2=0.475
+ C= {Cpar}
+ K1=0.000001
+ K2=28
+ K3= {Ind}
+ K4=0.0001
+ K5=0.00001
+ L=0
+ Is=0
+ a=0
+ L_Z0=0
+ L_EL=0
+ L_F0=0E6
+ PkZ=62054.7869
.ends LPS4040-104_imp

*======================================================================
* SPICE Model generated by Coilcraft
* Coilcraft Part Number : LPS4040-124
* Inductance = 120uH
*======================================================================
* Model Parameters:
*   Valid Frequency Range = 0.1MHz-14MHz
*   Ambient Temperature = 25 degC
*   Inductor Frequency Model
*   Use model for Frequency Domain simulations
*======================================================================
.subckt LPS4040-124_freq port1 port2 PARAMS: Cpar=4.4pF Ind=120uH
X1 port1 port2 Model1A PARAMS:
+ R1=70
+ R2=0.53
+ C= {Cpar}
+ K1=0.000001
+ K2=30
+ K3= {Ind}
+ K4=2.75
+ K5=0.00001
+ L=0
+ Is=0
+ a=0
+ L_Z0=0
+ L_EL=0
+ L_F0=0E6
+ PkZ=65826.6635
.ends LPS4040-124_freq

*======================================================================
* SPICE Model generated by Coilcraft
* Coilcraft Part Number : LPS4040-124
* Inductance = 120uH
*======================================================================
* Model Parameters:
*   Valid Frequency Range = 0.1MHz-14MHz
*   Ambient Temperature = 25 degC
*   Inductor Impedance Model
*   Use model for Time Domain simulations
*======================================================================
.subckt LPS4040-124_imp port1 port2 PARAMS: Cpar=3.973pF Ind=120uH
X1 port1 port2 Model1D PARAMS:
+ R1=70
+ R2=0.53
+ C= {Cpar}
+ K1=0.000001
+ K2=30
+ K3= {Ind}
+ K4=2.75
+ K5=0.00001
+ L=0
+ Is=0
+ a=0
+ L_Z0=0
+ L_EL=0
+ L_F0=0E6
+ PkZ=65826.6635
.ends LPS4040-124_imp

*======================================================================
* SPICE Model generated by Coilcraft
* Coilcraft Part Number : LPS4040-154
* Inductance = 150uH
*======================================================================
* Model Parameters:
*   Valid Frequency Range = 0.1MHz-14MHz
*   Ambient Temperature = 25 degC
*   Inductor Frequency Model
*   Use model for Frequency Domain simulations
*======================================================================
.subckt LPS4040-154_freq port1 port2 PARAMS: Cpar=3.8pF Ind=150uH
X1 port1 port2 Model1A PARAMS:
+ R1=47
+ R2=0.68
+ C= {Cpar}
+ K1=0.000001
+ K2=35
+ K3= {Ind}
+ K4=1.75
+ K5=0.00001
+ L=0
+ Is=0
+ a=0
+ L_Z0=0
+ L_EL=0
+ L_F0=0E6
+ PkZ=82102.2126
.ends LPS4040-154_freq

*======================================================================
* SPICE Model generated by Coilcraft
* Coilcraft Part Number : LPS4040-154
* Inductance = 150uH
*======================================================================
* Model Parameters:
*   Valid Frequency Range = 0.1MHz-14MHz
*   Ambient Temperature = 25 degC
*   Inductor Impedance Model
*   Use model for Time Domain simulations
*======================================================================
.subckt LPS4040-154_imp port1 port2 PARAMS: Cpar=3.614pF Ind=150uH
X1 port1 port2 Model1D PARAMS:
+ R1=47
+ R2=0.68
+ C= {Cpar}
+ K1=0.000001
+ K2=35
+ K3= {Ind}
+ K4=1.75
+ K5=0.00001
+ L=0
+ Is=0
+ a=0
+ L_Z0=0
+ L_EL=0
+ L_F0=0E6
+ PkZ=82102.2126
.ends LPS4040-154_imp

*======================================================================
* SPICE Model generated by Coilcraft
* Coilcraft Part Number : LPS4040-224
* Inductance = 220uH
*======================================================================
* Model Parameters:
*   Valid Frequency Range = 0.1MHz-14MHz
*   Ambient Temperature = 25 degC
*   Inductor Frequency Model
*   Use model for Frequency Domain simulations
*======================================================================
.subckt LPS4040-224_freq port1 port2 PARAMS: Cpar=5.25pF Ind=220uH
X1 port1 port2 Model1A PARAMS:
+ R1=30
+ R2=0.88
+ C= {Cpar}
+ K1=0.000001
+ K2=48.8
+ K3= {Ind}
+ K4=0.0001
+ K5=0.00001
+ L=0
+ Is=0
+ a=0
+ L_Z0=0
+ L_EL=0
+ L_F0=0E6
+ PkZ=98182.6174
.ends LPS4040-224_freq

*======================================================================
* SPICE Model generated by Coilcraft
* Coilcraft Part Number : LPS4040-224
* Inductance = 220uH
*======================================================================
* Model Parameters:
*   Valid Frequency Range = 0.1MHz-14MHz
*   Ambient Temperature = 25 degC
*   Inductor Impedance Model
*   Use model for Time Domain simulations
*======================================================================
.subckt LPS4040-224_imp port1 port2 PARAMS: Cpar=5.25pF Ind=220uH
X1 port1 port2 Model1D PARAMS:
+ R1=30
+ R2=0.88
+ C= {Cpar}
+ K1=0.000001
+ K2=48.8
+ K3= {Ind}
+ K4=0.0001
+ K5=0.00001
+ L=0
+ Is=0
+ a=0
+ L_Z0=0
+ L_EL=0
+ L_F0=0E6
+ PkZ=98182.6174
.ends LPS4040-224_imp

*======================================================================
* SPICE Model generated by Coilcraft
* Coilcraft Part Number : LPS4040-334
* Inductance = 330uH
*======================================================================
* Model Parameters:
*   Valid Frequency Range = 0.1MHz-10MHz
*   Ambient Temperature = 25 degC
*   Inductor Frequency Model
*   Use model for Frequency Domain simulations
*======================================================================
.subckt LPS4040-334_freq port1 port2 PARAMS: Cpar=4.25pF Ind=330uH
X1 port1 port2 Model1A PARAMS:
+ R1=22
+ R2=1.4
+ C= {Cpar}
+ K1=0.000001
+ K2=100
+ K3= {Ind}
+ K4=0.0001
+ K5=0.00001
+ L=0
+ Is=0
+ a=0
+ L_Z0=0
+ L_EL=0
+ L_F0=0E6
+ PkZ=194774.371
.ends LPS4040-334_freq

*======================================================================
* SPICE Model generated by Coilcraft
* Coilcraft Part Number : LPS4040-334
* Inductance = 330uH
*======================================================================
* Model Parameters:
*   Valid Frequency Range = 0.1MHz-10MHz
*   Ambient Temperature = 25 degC
*   Inductor Impedance Model
*   Use model for Time Domain simulations
*======================================================================
.subckt LPS4040-334_imp port1 port2 PARAMS: Cpar=4.25pF Ind=330uH
X1 port1 port2 Model1D PARAMS:
+ R1=22
+ R2=1.4
+ C= {Cpar}
+ K1=0.000001
+ K2=100
+ K3= {Ind}
+ K4=0.0001
+ K5=0.00001
+ L=0
+ Is=0
+ a=0
+ L_Z0=0
+ L_EL=0
+ L_F0=0E6
+ PkZ=194774.371
.ends LPS4040-334_imp

*======================================================================
* SPICE Model generated by Coilcraft
* Coilcraft Part Number : LPS4040-474
* Inductance = 470uH
*======================================================================
* Model Parameters:
*   Valid Frequency Range = 0.1MHz-10MHz
*   Ambient Temperature = 25 degC
*   Inductor Frequency Model
*   Use model for Frequency Domain simulations
*======================================================================
.subckt LPS4040-474_freq port1 port2 PARAMS: Cpar=6pF Ind=470uH
X1 port1 port2 Model1A PARAMS:
+ R1=15
+ R2=2.16
+ C= {Cpar}
+ K1=0.000001
+ K2=200
+ K3= {Ind}
+ K4=6.5
+ K5=0.00001
+ L=0
+ Is=0
+ a=0
+ L_Z0=0
+ L_EL=0
+ L_F0=0E6
+ PkZ=327352.499
.ends LPS4040-474_freq

*======================================================================
* SPICE Model generated by Coilcraft
* Coilcraft Part Number : LPS4040-474
* Inductance = 470uH
*======================================================================
* Model Parameters:
*   Valid Frequency Range = 0.1MHz-10MHz
*   Ambient Temperature = 25 degC
*   Inductor Impedance Model
*   Use model for Time Domain simulations
*======================================================================
.subckt LPS4040-474_imp port1 port2 PARAMS: Cpar=5.718pF Ind=470uH
X1 port1 port2 Model1D PARAMS:
+ R1=15
+ R2=2.16
+ C= {Cpar}
+ K1=0.000001
+ K2=200
+ K3= {Ind}
+ K4=6.5
+ K5=0.00001
+ L=0
+ Is=0
+ a=0
+ L_Z0=0
+ L_EL=0
+ L_F0=0E6
+ PkZ=327352.499
.ends LPS4040-474_imp

*======================================================================
* SPICE Model generated by Coilcraft
* Coilcraft Part Number : LPS4040-564
* Inductance = 560uH
*======================================================================
* Model Parameters:
*   Valid Frequency Range = 0.1MHz-8MHz
*   Ambient Temperature = 25 degC
*   Inductor Frequency Model
*   Use model for Frequency Domain simulations
*======================================================================
.subckt LPS4040-564_freq port1 port2 PARAMS: Cpar=6pF Ind=560uH
X1 port1 port2 Model1A PARAMS:
+ R1=15
+ R2=2.35
+ C= {Cpar}
+ K1=0.000001
+ K2=275
+ K3= {Ind}
+ K4=6.4
+ K5=0.00001
+ L=0
+ Is=0
+ a=0
+ L_Z0=0
+ L_EL=0
+ L_F0=0E6
+ PkZ=427235.042
.ends LPS4040-564_freq

*======================================================================
* SPICE Model generated by Coilcraft
* Coilcraft Part Number : LPS4040-564
* Inductance = 560uH
*======================================================================
* Model Parameters:
*   Valid Frequency Range = 0.1MHz-8MHz
*   Ambient Temperature = 25 degC
*   Inductor Impedance Model
*   Use model for Time Domain simulations
*======================================================================
.subckt LPS4040-564_imp port1 port2 PARAMS: Cpar=5.773pF Ind=560uH
X1 port1 port2 Model1D PARAMS:
+ R1=15
+ R2=2.35
+ C= {Cpar}
+ K1=0.000001
+ K2=275
+ K3= {Ind}
+ K4=6.4
+ K5=0.00001
+ L=0
+ Is=0
+ a=0
+ L_Z0=0
+ L_EL=0
+ L_F0=0E6
+ PkZ=427235.042
.ends LPS4040-564_imp

*======================================================================
* SPICE Model generated by Coilcraft
* Coilcraft Part Number : LPS4040-684
* Inductance = 680uH
*======================================================================
* Model Parameters:
*   Valid Frequency Range = 0.1MHz-8MHz
*   Ambient Temperature = 25 degC
*   Inductor Frequency Model
*   Use model for Frequency Domain simulations
*======================================================================
.subckt LPS4040-684_freq port1 port2 PARAMS: Cpar=5.05pF Ind=680uH
X1 port1 port2 Model1A PARAMS:
+ R1=50
+ R2=3
+ C= {Cpar}
+ K1=0.000001
+ K2=145
+ K3= {Ind}
+ K4=14
+ K5=0.00001
+ L=0
+ Is=0
+ a=0
+ L_Z0=0
+ L_EL=0
+ L_F0=0E6
+ PkZ=221695.977
.ends LPS4040-684_freq

*======================================================================
* SPICE Model generated by Coilcraft
* Coilcraft Part Number : LPS4040-684
* Inductance = 680uH
*======================================================================
* Model Parameters:
*   Valid Frequency Range = 0.1MHz-8MHz
*   Ambient Temperature = 25 degC
*   Inductor Impedance Model
*   Use model for Time Domain simulations
*======================================================================
.subckt LPS4040-684_imp port1 port2 PARAMS: Cpar=4.707pF Ind=680uH
X1 port1 port2 Model1D PARAMS:
+ R1=50
+ R2=3
+ C= {Cpar}
+ K1=0.000001
+ K2=145
+ K3= {Ind}
+ K4=14
+ K5=0.00001
+ L=0
+ Is=0
+ a=0
+ L_Z0=0
+ L_EL=0
+ L_F0=0E6
+ PkZ=221695.977
.ends LPS4040-684_imp

*======================================================================
* SPICE Model generated by Coilcraft
* Coilcraft Part Number : LPS4040-105
* Inductance = 1000uH
*======================================================================
* Model Parameters:
*   Valid Frequency Range = 0.1MHz-8MHz
*   Ambient Temperature = 25 degC
*   Inductor Frequency Model
*   Use model for Frequency Domain simulations
*======================================================================
.subckt LPS4040-105_freq port1 port2 PARAMS: Cpar=5.8pF Ind=1000uH
X1 port1 port2 Model1A PARAMS:
+ R1=50
+ R2=4.02
+ C= {Cpar}
+ K1=0.000001
+ K2=210
+ K3= {Ind}
+ K4=4.75
+ K5=0.00001
+ L=0
+ Is=0
+ a=0
+ L_Z0=0
+ L_EL=0
+ L_F0=0E6
+ PkZ=279620.247
.ends LPS4040-105_freq

*======================================================================
* SPICE Model generated by Coilcraft
* Coilcraft Part Number : LPS4040-105
* Inductance = 1000uH
*======================================================================
* Model Parameters:
*   Valid Frequency Range = 0.1MHz-8MHz
*   Ambient Temperature = 25 degC
*   Inductor Impedance Model
*   Use model for Time Domain simulations
*======================================================================
.subckt LPS4040-105_imp port1 port2 PARAMS: Cpar=5.716pF Ind=1000uH
X1 port1 port2 Model1D PARAMS:
+ R1=50
+ R2=4.02
+ C= {Cpar}
+ K1=0.000001
+ K2=210
+ K3= {Ind}
+ K4=4.75
+ K5=0.00001
+ L=0
+ Is=0
+ a=0
+ L_Z0=0
+ L_EL=0
+ L_F0=0E6
+ PkZ=279620.247
.ends LPS4040-105_imp

*======================================================================
* SPICE Model generated by Coilcraft
* Coilcraft Part Number : LPS4040-155
* Inductance = 1500uH
*======================================================================
* Model Parameters:
*   Valid Frequency Range = 0.1MHz-8MHz
*   Ambient Temperature = 25 degC
*   Inductor Frequency Model
*   Use model for Frequency Domain simulations
*======================================================================
.subckt LPS4040-155_freq port1 port2 PARAMS: Cpar=6.35pF Ind=1500uH
X1 port1 port2 Model1A PARAMS:
+ R1=40
+ R2=6.23
+ C= {Cpar}
+ K1=0.000001
+ K2=475
+ K3= {Ind}
+ K4=0.0001
+ K5=0.00001
+ L=0
+ Is=0
+ a=0
+ L_Z0=0
+ L_EL=0
+ L_F0=0E6
+ PkZ=550083.246
.ends LPS4040-155_freq

*======================================================================
* SPICE Model generated by Coilcraft
* Coilcraft Part Number : LPS4040-155
* Inductance = 1500uH
*======================================================================
* Model Parameters:
*   Valid Frequency Range = 0.1MHz-8MHz
*   Ambient Temperature = 25 degC
*   Inductor Impedance Model
*   Use model for Time Domain simulations
*======================================================================
.subckt LPS4040-155_imp port1 port2 PARAMS: Cpar=6.35pF Ind=1500uH
X1 port1 port2 Model1D PARAMS:
+ R1=40
+ R2=6.23
+ C= {Cpar}
+ K1=0.000001
+ K2=475
+ K3= {Ind}
+ K4=0.0001
+ K5=0.00001
+ L=0
+ Is=0
+ a=0
+ L_Z0=0
+ L_EL=0
+ L_F0=0E6
+ PkZ=550083.246
.ends LPS4040-155_imp

*======================================================================
* SPICE Model generated by Coilcraft
* Coilcraft Part Number : LPS4040-185
* Inductance = 1800uH
*======================================================================
* Model Parameters:
*   Valid Frequency Range = 0.1MHz-8MHz
*   Ambient Temperature = 25 degC
*   Inductor Frequency Model
*   Use model for Frequency Domain simulations
*======================================================================
.subckt LPS4040-185_freq port1 port2 PARAMS: Cpar=5.9pF Ind=1800uH
X1 port1 port2 Model1A PARAMS:
+ R1=40
+ R2=7.7
+ C= {Cpar}
+ K1=0.000001
+ K2=420
+ K3= {Ind}
+ K4=20
+ K5=0.00001
+ L=0
+ Is=0
+ a=0
+ L_Z0=0
+ L_EL=0
+ L_F0=0E6
+ PkZ=491067.047
.ends LPS4040-185_freq

*======================================================================
* SPICE Model generated by Coilcraft
* Coilcraft Part Number : LPS4040-185
* Inductance = 1800uH
*======================================================================
* Model Parameters:
*   Valid Frequency Range = 0.1MHz-8MHz
*   Ambient Temperature = 25 degC
*   Inductor Impedance Model
*   Use model for Time Domain simulations
*======================================================================
.subckt LPS4040-185_imp port1 port2 PARAMS: Cpar=5.721pF Ind=1800uH
X1 port1 port2 Model1D PARAMS:
+ R1=40
+ R2=7.7
+ C= {Cpar}
+ K1=0.000001
+ K2=420
+ K3= {Ind}
+ K4=20
+ K5=0.00001
+ L=0
+ Is=0
+ a=0
+ L_Z0=0
+ L_EL=0
+ L_F0=0E6
+ PkZ=491067.047
.ends LPS4040-185_imp

*======================================================================
* SPICE Model generated by Coilcraft
* Coilcraft Part Number : LPS4040-225
* Inductance = 2200uH
*======================================================================
* Model Parameters:
*   Valid Frequency Range = 0.1MHz-8MHz
*   Ambient Temperature = 25 degC
*   Inductor Frequency Model
*   Use model for Frequency Domain simulations
*======================================================================
.subckt LPS4040-225_freq port1 port2 PARAMS: Cpar=5.6pF Ind=2200uH
X1 port1 port2 Model1A PARAMS:
+ R1=20
+ R2=8.8
+ C= {Cpar}
+ K1=0.000001
+ K2=375
+ K3= {Ind}
+ K4=0.0001
+ K5=0.00001
+ L=0
+ Is=0
+ a=0
+ L_Z0=0
+ L_EL=0
+ L_F0=0E6
+ PkZ=439016.086
.ends LPS4040-225_freq

*======================================================================
* SPICE Model generated by Coilcraft
* Coilcraft Part Number : LPS4040-225
* Inductance = 2200uH
*======================================================================
* Model Parameters:
*   Valid Frequency Range = 0.1MHz-8MHz
*   Ambient Temperature = 25 degC
*   Inductor Impedance Model
*   Use model for Time Domain simulations
*======================================================================
.subckt LPS4040-225_imp port1 port2 PARAMS: Cpar=5.6pF Ind=2200uH
X1 port1 port2 Model1D PARAMS:
+ R1=20
+ R2=8.8
+ C= {Cpar}
+ K1=0.000001
+ K2=375
+ K3= {Ind}
+ K4=0.0001
+ K5=0.00001
+ L=0
+ Is=0
+ a=0
+ L_Z0=0
+ L_EL=0
+ L_F0=0E6
+ PkZ=439016.086
.ends LPS4040-225_imp

*======================================================================
* SPICE Model generated by Coilcraft
* Coilcraft Part Number : LPS4040-335
* Inductance = 3300uH
*======================================================================
* Model Parameters:
*   Valid Frequency Range = 0.1MHz-6MHz
*   Ambient Temperature = 25 degC
*   Inductor Frequency Model
*   Use model for Frequency Domain simulations
*======================================================================
.subckt LPS4040-335_freq port1 port2 PARAMS: Cpar=6.6pF Ind=3300uH
X1 port1 port2 Model1A PARAMS:
+ R1=5
+ R2=16.4
+ C= {Cpar}
+ K1=0.000001
+ K2=180
+ K3= {Ind}
+ K4=0.0001
+ K5=0.00001
+ L=0
+ Is=0
+ a=0
+ L_Z0=0
+ L_EL=0
+ L_F0=0E6
+ PkZ=186592.879
.ends LPS4040-335_freq

*======================================================================
* SPICE Model generated by Coilcraft
* Coilcraft Part Number : LPS4040-335
* Inductance = 3300uH
*======================================================================
* Model Parameters:
*   Valid Frequency Range = 0.1MHz-6MHz
*   Ambient Temperature = 25 degC
*   Inductor Impedance Model
*   Use model for Time Domain simulations
*======================================================================
.subckt LPS4040-335_imp port1 port2 PARAMS: Cpar=6.6pF Ind=3300uH
X1 port1 port2 Model1D PARAMS:
+ R1=5
+ R2=16.4
+ C= {Cpar}
+ K1=0.000001
+ K2=180
+ K3= {Ind}
+ K4=0.0001
+ K5=0.00001
+ L=0
+ Is=0
+ a=0
+ L_Z0=0
+ L_EL=0
+ L_F0=0E6
+ PkZ=186592.879
.ends LPS4040-335_imp

*======================================================================
* SPICE Model generated by Coilcraft
* Coilcraft Part Number : LPS4040-475
* Inductance = 4700uH
*======================================================================
* Model Parameters:
*   Valid Frequency Range = 0.1MHz-5MHz
*   Ambient Temperature = 25 degC
*   Inductor Frequency Model
*   Use model for Frequency Domain simulations
*======================================================================
.subckt LPS4040-475_freq port1 port2 PARAMS: Cpar=6.1pF Ind=4700uH
X1 port1 port2 Model1A PARAMS:
+ R1=5
+ R2=22.25
+ C= {Cpar}
+ K1=0.000001
+ K2=175
+ K3= {Ind}
+ K4=0.0001
+ K5=0.00001
+ L=0
+ Is=0
+ a=0
+ L_Z0=0
+ L_EL=0
+ L_F0=0E6
+ PkZ=169500.2
.ends LPS4040-475_freq

*======================================================================
* SPICE Model generated by Coilcraft
* Coilcraft Part Number : LPS4040-475
* Inductance = 4700uH
*======================================================================
* Model Parameters:
*   Valid Frequency Range = 0.1MHz-5MHz
*   Ambient Temperature = 25 degC
*   Inductor Impedance Model
*   Use model for Time Domain simulations
*======================================================================
.subckt LPS4040-475_imp port1 port2 PARAMS: Cpar=6.1pF Ind=4700uH
X1 port1 port2 Model1D PARAMS:
+ R1=5
+ R2=22.25
+ C= {Cpar}
+ K1=0.000001
+ K2=175
+ K3= {Ind}
+ K4=0.0001
+ K5=0.00001
+ L=0
+ Is=0
+ a=0
+ L_Z0=0
+ L_EL=0
+ L_F0=0E6
+ PkZ=169500.2
.ends LPS4040-475_imp

*======================================================================
* SPICE Model generated by Coilcraft
* Coilcraft Part Number : LPS4040-565
* Inductance = 5600uH
*======================================================================
* Model Parameters:
*   Valid Frequency Range = 0.1MHz-3MHz
*   Ambient Temperature = 25 degC
*   Inductor Frequency Model
*   Use model for Frequency Domain simulations
*======================================================================
.subckt LPS4040-565_freq port1 port2 PARAMS: Cpar=7.75pF Ind=5600uH
X1 port1 port2 Model1A PARAMS:
+ R1=160
+ R2=30
+ C= {Cpar}
+ K1=0.000001
+ K2=260
+ K3= {Ind}
+ K4=550
+ K5=0.00001
+ L=0
+ Is=0
+ a=0
+ L_Z0=0
+ L_EL=0
+ L_F0=0E6
+ PkZ=223435.266
.ends LPS4040-565_freq

*======================================================================
* SPICE Model generated by Coilcraft
* Coilcraft Part Number : LPS4040-565
* Inductance = 5600uH
*======================================================================
* Model Parameters:
*   Valid Frequency Range = 0.1MHz-3MHz
*   Ambient Temperature = 25 degC
*   Inductor Impedance Model
*   Use model for Time Domain simulations
*======================================================================
.subckt LPS4040-565_imp port1 port2 PARAMS: Cpar=6.202pF Ind=5600uH
X1 port1 port2 Model1D PARAMS:
+ R1=160
+ R2=30
+ C= {Cpar}
+ K1=0.000001
+ K2=260
+ K3= {Ind}
+ K4=550
+ K5=0.00001
+ L=0
+ Is=0
+ a=0
+ L_Z0=0
+ L_EL=0
+ L_F0=0E6
+ PkZ=223435.266
.ends LPS4040-565_imp

*======================================================================
* SPICE Model generated by Coilcraft
* Coilcraft Impedance Inductor Model
*======================================================================
* Model Parameters:
*   Valid Frequency Range Varies by Inductor
*   Ambient Temperature = 25 degC
*   Time Domain Inductor Impedance Model
*======================================================================
.subckt Model1D Lin Lout PARAMS:
+ R1=1
+ R2=1
+ C=1
+ K3=1
+ PkZ=1
R2 Lin N001 {R2}
R3 N001 Lout {PkZ}
C1 N001 N002 {C}
R1 N002 Lout {R1}
L1 N001 Lout {K3}
.ends Model1D

*======================================================================
* SPICE Model generated by Coilcraft
* Coilcraft Power Inductor Model
*======================================================================
* Model Parameters:
*   Valid Frequency Range Varies by Inductor
*   Ambient Temperature = 25 degC
*   DC Bias Current = 0 A
*   Frequency Dependent Inductor Model
*======================================================================
.subckt Model1A Lin Lout PARAMS:
+ R1=1
+ R2=1
+ C=1
+ K1=1
+ K2=1
+ K3=1
+ K4=1
+ K5=1
R2 N001 Lin {R2}
R1 Lout N002 {R1}
C1 N002 N001 {C}
G_Rvar2 N001 Lout LAPLACE { V(N001, Lout) } {1/K2/(-S*S/4/PI^2)^0.25}
G_Rvar1 N001 N003 LAPLACE { V(N001, N003) } {1/K1/(-S*S/4/PI^2)^0.25}
G_Lvar N003 Lout  LAPLACE { V(N003, Lout) } {1/(S*1e-6*({K3*1e6}-({K4}*LOG({K5}*(sqrt(-S*S)/(2*pi))))))}
*This large resistance to ground has been added to prevent a floating node error
R3 N003 0 100Meg
.ends Model1A


.subckt Coilcraft_Inductor Lin Lout
R1 Lout Lin 100Meg
.ends Coilcraft_Inductor
