*======================================================================
* SPICE Model generated by Coilcraft
* Coilcraft Part Number : LPS4414-301
* Inductance = 300nH
*======================================================================
* Model Parameters:
*   Valid Frequency Range = 0.1MHz-500MHz
*   Ambient Temperature = 25 degC
*   Inductor Frequency Model
*   Use model for Frequency Domain simulations
*======================================================================
.subckt LPS4414-301_freq port1 port2 PARAMS: Cpar=0.557pF Ind=0.3uH
X1 port1 port2 Model1A PARAMS:
+ R1=200
+ R2=0.04
+ C= {Cpar}
+ K1=0.000001
+ K2=0.055
+ K3= {Ind}
+ K4=0.00155
+ K5=0.000001
+ L=0
+ Is=0
+ a=0
+ L_Z0=0
+ L_EL=0
+ L_F0=0E6
+ PkZ=784.970015
.ends LPS4414-301_freq

*======================================================================
* SPICE Model generated by Coilcraft
* Coilcraft Part Number : LPS4414-301
* Inductance = 300nH
*======================================================================
* Model Parameters:
*   Valid Frequency Range = 0.1MHz-500MHz
*   Ambient Temperature = 25 degC
*   Inductor Impedance Model
*   Use model for Time Domain simulations
*======================================================================
.subckt LPS4414-301_imp port1 port2 PARAMS: Cpar=0.54pF Ind=0.3uH
X1 port1 port2 Model1D PARAMS:
+ R1=200
+ R2=0.04
+ C= {Cpar}
+ K1=0.000001
+ K2=0.055
+ K3= {Ind}
+ K4=0.00155
+ K5=0.000001
+ L=0
+ Is=0
+ a=0
+ L_Z0=0
+ L_EL=0
+ L_F0=0E6
+ PkZ=784.970015
.ends LPS4414-301_imp

*======================================================================
* SPICE Model generated by Coilcraft
* Coilcraft Part Number : LPS4414-501
* Inductance = 500nH
*======================================================================
* Model Parameters:
*   Valid Frequency Range = 0.1MHz-500MHz
*   Ambient Temperature = 25 degC
*   Inductor Frequency Model
*   Use model for Frequency Domain simulations
*======================================================================
.subckt LPS4414-501_freq port1 port2 PARAMS: Cpar=0.653pF Ind=0.5uH
X1 port1 port2 Model1A PARAMS:
+ R1=150
+ R2=0.05
+ C= {Cpar}
+ K1=0.000001
+ K2=0.102
+ K3= {Ind}
+ K4=0.000001
+ K5=0.000001
+ L=0
+ Is=0
+ a=0
+ L_Z0=0
+ L_EL=0
+ L_F0=0E6
+ PkZ=1284.65411
.ends LPS4414-501_freq

*======================================================================
* SPICE Model generated by Coilcraft
* Coilcraft Part Number : LPS4414-501
* Inductance = 500nH
*======================================================================
* Model Parameters:
*   Valid Frequency Range = 0.1MHz-500MHz
*   Ambient Temperature = 25 degC
*   Inductor Impedance Model
*   Use model for Time Domain simulations
*======================================================================
.subckt LPS4414-501_imp port1 port2 PARAMS: Cpar=0.653pF Ind=0.5uH
X1 port1 port2 Model1D PARAMS:
+ R1=150
+ R2=0.05
+ C= {Cpar}
+ K1=0.000001
+ K2=0.102
+ K3= {Ind}
+ K4=0.000001
+ K5=0.000001
+ L=0
+ Is=0
+ a=0
+ L_Z0=0
+ L_EL=0
+ L_F0=0E6
+ PkZ=1284.65411
.ends LPS4414-501_imp

*======================================================================
* SPICE Model generated by Coilcraft
* Coilcraft Part Number : LPS4414-801
* Inductance = 800nH
*======================================================================
* Model Parameters:
*   Valid Frequency Range = 0.1MHz-400MHz
*   Ambient Temperature = 25 degC
*   Inductor Frequency Model
*   Use model for Frequency Domain simulations
*======================================================================
.subckt LPS4414-801_freq port1 port2 PARAMS: Cpar=0.743pF Ind=0.8uH
X1 port1 port2 Model1A PARAMS:
+ R1=100
+ R2=0.055
+ C= {Cpar}
+ K1=0.000001
+ K2=0.156
+ K3= {Ind}
+ K4=0.000001
+ K5=0.000001
+ L=0
+ Is=0
+ a=0
+ L_Z0=0
+ L_EL=0
+ L_F0=0E6
+ PkZ=1857.89017
.ends LPS4414-801_freq

*======================================================================
* SPICE Model generated by Coilcraft
* Coilcraft Part Number : LPS4414-801
* Inductance = 800nH
*======================================================================
* Model Parameters:
*   Valid Frequency Range = 0.1MHz-400MHz
*   Ambient Temperature = 25 degC
*   Inductor Impedance Model
*   Use model for Time Domain simulations
*======================================================================
.subckt LPS4414-801_imp port1 port2 PARAMS: Cpar=0.743pF Ind=0.8uH
X1 port1 port2 Model1D PARAMS:
+ R1=100
+ R2=0.055
+ C= {Cpar}
+ K1=0.000001
+ K2=0.156
+ K3= {Ind}
+ K4=0.000001
+ K5=0.000001
+ L=0
+ Is=0
+ a=0
+ L_Z0=0
+ L_EL=0
+ L_F0=0E6
+ PkZ=1857.89017
.ends LPS4414-801_imp

*======================================================================
* SPICE Model generated by Coilcraft
* Coilcraft Part Number : LPS4414-102
* Inductance = 1uH
*======================================================================
* Model Parameters:
*   Valid Frequency Range = 0.1MHz-400MHz
*   Ambient Temperature = 25 degC
*   Inductor Frequency Model
*   Use model for Frequency Domain simulations
*======================================================================
.subckt LPS4414-102_freq port1 port2 PARAMS: Cpar=0.933pF Ind=1uH
X1 port1 port2 Model1A PARAMS:
+ R1=75
+ R2=0.06
+ C= {Cpar}
+ K1=0.000001
+ K2=0.224
+ K3= {Ind}
+ K4=0.000001
+ K5=0.000001
+ L=0
+ Is=0
+ a=0
+ L_Z0=0
+ L_EL=0
+ L_F0=0E6
+ PkZ=2395.62411
.ends LPS4414-102_freq

*======================================================================
* SPICE Model generated by Coilcraft
* Coilcraft Part Number : LPS4414-102
* Inductance = 1uH
*======================================================================
* Model Parameters:
*   Valid Frequency Range = 0.1MHz-400MHz
*   Ambient Temperature = 25 degC
*   Inductor Impedance Model
*   Use model for Time Domain simulations
*======================================================================
.subckt LPS4414-102_imp port1 port2 PARAMS: Cpar=0.933pF Ind=1uH
X1 port1 port2 Model1D PARAMS:
+ R1=75
+ R2=0.06
+ C= {Cpar}
+ K1=0.000001
+ K2=0.224
+ K3= {Ind}
+ K4=0.000001
+ K5=0.000001
+ L=0
+ Is=0
+ a=0
+ L_Z0=0
+ L_EL=0
+ L_F0=0E6
+ PkZ=2395.62411
.ends LPS4414-102_imp

*======================================================================
* SPICE Model generated by Coilcraft
* Coilcraft Part Number : LPS4414-152
* Inductance = 1.5uH
*======================================================================
* Model Parameters:
*   Valid Frequency Range = 0.1MHz-300MHz
*   Ambient Temperature = 25 degC
*   Inductor Frequency Model
*   Use model for Frequency Domain simulations
*======================================================================
.subckt LPS4414-152_freq port1 port2 PARAMS: Cpar=0.923pF Ind=1.5uH
X1 port1 port2 Model1A PARAMS:
+ R1=65
+ R2=0.078
+ C= {Cpar}
+ K1=0.000001
+ K2=0.32
+ K3= {Ind}
+ K4=0.01
+ K5=0.000445
+ L=0
+ Is=0
+ a=0
+ L_Z0=0
+ L_EL=0
+ L_F0=0E6
+ PkZ=3260.72198
.ends LPS4414-152_freq

*======================================================================
* SPICE Model generated by Coilcraft
* Coilcraft Part Number : LPS4414-152
* Inductance = 1.5uH
*======================================================================
* Model Parameters:
*   Valid Frequency Range = 0.1MHz-300MHz
*   Ambient Temperature = 25 degC
*   Inductor Impedance Model
*   Use model for Time Domain simulations
*======================================================================
.subckt LPS4414-152_imp port1 port2 PARAMS: Cpar=0.855pF Ind=1.5uH
X1 port1 port2 Model1D PARAMS:
+ R1=65
+ R2=0.078
+ C= {Cpar}
+ K1=0.000001
+ K2=0.32
+ K3= {Ind}
+ K4=0.01
+ K5=0.000445
+ L=0
+ Is=0
+ a=0
+ L_Z0=0
+ L_EL=0
+ L_F0=0E6
+ PkZ=3260.72198
.ends LPS4414-152_imp

*======================================================================
* SPICE Model generated by Coilcraft
* Coilcraft Part Number : LPS4414-182
* Inductance = 1.8uH
*======================================================================
* Model Parameters:
*   Valid Frequency Range = 0.1MHz-300MHz
*   Ambient Temperature = 25 degC
*   Inductor Frequency Model
*   Use model for Frequency Domain simulations
*======================================================================
.subckt LPS4414-182_freq port1 port2 PARAMS: Cpar=1.11pF Ind=1.8uH
X1 port1 port2 Model1A PARAMS:
+ R1=35
+ R2=0.087
+ C= {Cpar}
+ K1=0.000001
+ K2=0.45
+ K3= {Ind}
+ K4=0.0182
+ K5=0.0000037
+ L=0
+ Is=0
+ a=0
+ L_Z0=0
+ L_EL=0
+ L_F0=0E6
+ PkZ=4364.40989
.ends LPS4414-182_freq

*======================================================================
* SPICE Model generated by Coilcraft
* Coilcraft Part Number : LPS4414-182
* Inductance = 1.8uH
*======================================================================
* Model Parameters:
*   Valid Frequency Range = 0.1MHz-300MHz
*   Ambient Temperature = 25 degC
*   Inductor Impedance Model
*   Use model for Time Domain simulations
*======================================================================
.subckt LPS4414-182_imp port1 port2 PARAMS: Cpar=1.042pF Ind=1.8uH
X1 port1 port2 Model1D PARAMS:
+ R1=35
+ R2=0.087
+ C= {Cpar}
+ K1=0.000001
+ K2=0.45
+ K3= {Ind}
+ K4=0.0182
+ K5=0.0000037
+ L=0
+ Is=0
+ a=0
+ L_Z0=0
+ L_EL=0
+ L_F0=0E6
+ PkZ=4364.40989
.ends LPS4414-182_imp

*======================================================================
* SPICE Model generated by Coilcraft
* Coilcraft Part Number : LPS4414-222
* Inductance = 2.2uH
*======================================================================
* Model Parameters:
*   Valid Frequency Range = 0.1MHz-200MHz
*   Ambient Temperature = 25 degC
*   Inductor Frequency Model
*   Use model for Frequency Domain simulations
*======================================================================
.subckt LPS4414-222_freq port1 port2 PARAMS: Cpar=0.98pF Ind=2.2uH
X1 port1 port2 Model1A PARAMS:
+ R1=75
+ R2=0.11
+ C= {Cpar}
+ K1=0.000001
+ K2=0.558
+ K3= {Ind}
+ K4=0.0358
+ K5=0.000004
+ L=0
+ Is=0
+ a=0
+ L_Z0=0
+ L_EL=0
+ L_F0=0E6
+ PkZ=4885.15536
.ends LPS4414-222_freq

*======================================================================
* SPICE Model generated by Coilcraft
* Coilcraft Part Number : LPS4414-222
* Inductance = 2.2uH
*======================================================================
* Model Parameters:
*   Valid Frequency Range = 0.1MHz-200MHz
*   Ambient Temperature = 25 degC
*   Inductor Impedance Model
*   Use model for Time Domain simulations
*======================================================================
.subckt LPS4414-222_imp port1 port2 PARAMS: Cpar=0.883pF Ind=2.2uH
X1 port1 port2 Model1D PARAMS:
+ R1=75
+ R2=0.11
+ C= {Cpar}
+ K1=0.000001
+ K2=0.558
+ K3= {Ind}
+ K4=0.0358
+ K5=0.000004
+ L=0
+ Is=0
+ a=0
+ L_Z0=0
+ L_EL=0
+ L_F0=0E6
+ PkZ=4885.15536
.ends LPS4414-222_imp

*======================================================================
* SPICE Model generated by Coilcraft
* Coilcraft Part Number : LPS4414-332
* Inductance = 3.3uH
*======================================================================
* Model Parameters:
*   Valid Frequency Range = 0.1MHz-200MHz
*   Ambient Temperature = 25 degC
*   Inductor Frequency Model
*   Use model for Frequency Domain simulations
*======================================================================
.subckt LPS4414-332_freq port1 port2 PARAMS: Cpar=1.4pF Ind=3.3uH
X1 port1 port2 Model1A PARAMS:
+ R1=55
+ R2=0.165
+ C= {Cpar}
+ K1=0.000001
+ K2=1.05
+ K3= {Ind}
+ K4=0.05333
+ K5=0.000004
+ L=0
+ Is=0
+ a=0
+ L_Z0=0
+ L_EL=0
+ L_F0=0E6
+ PkZ=7478.81788
.ends LPS4414-332_freq

*======================================================================
* SPICE Model generated by Coilcraft
* Coilcraft Part Number : LPS4414-332
* Inductance = 3.3uH
*======================================================================
* Model Parameters:
*   Valid Frequency Range = 0.1MHz-200MHz
*   Ambient Temperature = 25 degC
*   Inductor Impedance Model
*   Use model for Time Domain simulations
*======================================================================
.subckt LPS4414-332_imp port1 port2 PARAMS: Cpar=1.271pF Ind=3.3uH
X1 port1 port2 Model1D PARAMS:
+ R1=55
+ R2=0.165
+ C= {Cpar}
+ K1=0.000001
+ K2=1.05
+ K3= {Ind}
+ K4=0.05333
+ K5=0.000004
+ L=0
+ Is=0
+ a=0
+ L_Z0=0
+ L_EL=0
+ L_F0=0E6
+ PkZ=7478.81788
.ends LPS4414-332_imp

*======================================================================
* SPICE Model generated by Coilcraft
* Coilcraft Part Number : LPS4414-472
* Inductance = 4.7uH
*======================================================================
* Model Parameters:
*   Valid Frequency Range = 0.1MHz-200MHz
*   Ambient Temperature = 25 degC
*   Inductor Frequency Model
*   Use model for Frequency Domain simulations
*======================================================================
.subckt LPS4414-472_freq port1 port2 PARAMS: Cpar=1.38pF Ind=4.7uH
X1 port1 port2 Model1A PARAMS:
+ R1=40
+ R2=0.215
+ C= {Cpar}
+ K1=0.000001
+ K2=1.52
+ K3= {Ind}
+ K4=0.0862
+ K5=0.000004
+ L=0
+ Is=0
+ a=0
+ L_Z0=0
+ L_EL=0
+ L_F0=0E6
+ PkZ=10627.3357
.ends LPS4414-472_freq

*======================================================================
* SPICE Model generated by Coilcraft
* Coilcraft Part Number : LPS4414-472
* Inductance = 4.7uH
*======================================================================
* Model Parameters:
*   Valid Frequency Range = 0.1MHz-200MHz
*   Ambient Temperature = 25 degC
*   Inductor Impedance Model
*   Use model for Time Domain simulations
*======================================================================
.subckt LPS4414-472_imp port1 port2 PARAMS: Cpar=1.24pF Ind=4.7uH
X1 port1 port2 Model1D PARAMS:
+ R1=40
+ R2=0.215
+ C= {Cpar}
+ K1=0.000001
+ K2=1.52
+ K3= {Ind}
+ K4=0.0862
+ K5=0.000004
+ L=0
+ Is=0
+ a=0
+ L_Z0=0
+ L_EL=0
+ L_F0=0E6
+ PkZ=10627.3357
.ends LPS4414-472_imp

*======================================================================
* SPICE Model generated by Coilcraft
* Coilcraft Part Number : LPS4414-562
* Inductance = 5.6uH
*======================================================================
* Model Parameters:
*   Valid Frequency Range = 0.1MHz-200MHz
*   Ambient Temperature = 25 degC
*   Inductor Frequency Model
*   Use model for Frequency Domain simulations
*======================================================================
.subckt LPS4414-562_freq port1 port2 PARAMS: Cpar=1.5pF Ind=5.6uH
X1 port1 port2 Model1A PARAMS:
+ R1=22.5
+ R2=0.26
+ C= {Cpar}
+ K1=0.000001
+ K2=2
+ K3= {Ind}
+ K4=0.000001
+ K5=0.000001
+ L=0
+ Is=0
+ a=0
+ L_Z0=0
+ L_EL=0
+ L_F0=0E6
+ PkZ=13605.5284
.ends LPS4414-562_freq

*======================================================================
* SPICE Model generated by Coilcraft
* Coilcraft Part Number : LPS4414-562
* Inductance = 5.6uH
*======================================================================
* Model Parameters:
*   Valid Frequency Range = 0.1MHz-200MHz
*   Ambient Temperature = 25 degC
*   Inductor Impedance Model
*   Use model for Time Domain simulations
*======================================================================
.subckt LPS4414-562_imp port1 port2 PARAMS: Cpar=1.5pF Ind=5.6uH
X1 port1 port2 Model1D PARAMS:
+ R1=22.5
+ R2=0.26
+ C= {Cpar}
+ K1=0.000001
+ K2=2
+ K3= {Ind}
+ K4=0.000001
+ K5=0.000001
+ L=0
+ Is=0
+ a=0
+ L_Z0=0
+ L_EL=0
+ L_F0=0E6
+ PkZ=13605.5284
.ends LPS4414-562_imp

*======================================================================
* SPICE Model generated by Coilcraft
* Coilcraft Part Number : LPS4414-682
* Inductance = 6.8uH
*======================================================================
* Model Parameters:
*   Valid Frequency Range = 0.1MHz-200MHz
*   Ambient Temperature = 25 degC
*   Inductor Frequency Model
*   Use model for Frequency Domain simulations
*======================================================================
.subckt LPS4414-682_freq port1 port2 PARAMS: Cpar=1.7pF Ind=6.8uH
X1 port1 port2 Model1A PARAMS:
+ R1=13.5
+ R2=0.27
+ C= {Cpar}
+ K1=0.000001
+ K2=2.15
+ K3= {Ind}
+ K4=0.05
+ K5=0.000001
+ L=0
+ Is=0
+ a=0
+ L_Z0=0
+ L_EL=0
+ L_F0=0E6
+ PkZ=14090.6132
.ends LPS4414-682_freq

*======================================================================
* SPICE Model generated by Coilcraft
* Coilcraft Part Number : LPS4414-682
* Inductance = 6.8uH
*======================================================================
* Model Parameters:
*   Valid Frequency Range = 0.1MHz-200MHz
*   Ambient Temperature = 25 degC
*   Inductor Impedance Model
*   Use model for Time Domain simulations
*======================================================================
.subckt LPS4414-682_imp port1 port2 PARAMS: Cpar=1.652pF Ind=6.8uH
X1 port1 port2 Model1D PARAMS:
+ R1=13.5
+ R2=0.27
+ C= {Cpar}
+ K1=0.000001
+ K2=2.15
+ K3= {Ind}
+ K4=0.05
+ K5=0.000001
+ L=0
+ Is=0
+ a=0
+ L_Z0=0
+ L_EL=0
+ L_F0=0E6
+ PkZ=14090.6132
.ends LPS4414-682_imp

*======================================================================
* SPICE Model generated by Coilcraft
* Coilcraft Part Number : LPS4414-822
* Inductance = 8.2uH
*======================================================================
* Model Parameters:
*   Valid Frequency Range = 0.1MHz-200MHz
*   Ambient Temperature = 25 degC
*   Inductor Frequency Model
*   Use model for Frequency Domain simulations
*======================================================================
.subckt LPS4414-822_freq port1 port2 PARAMS: Cpar=1.8pF Ind=8.2uH
X1 port1 port2 Model1A PARAMS:
+ R1=14
+ R2=0.35
+ C= {Cpar}
+ K1=0.000001
+ K2=2.55
+ K3= {Ind}
+ K4=0.15
+ K5=0.000001
+ L=0
+ Is=0
+ a=0
+ L_Z0=0
+ L_EL=0
+ L_F0=0E6
+ PkZ=15832.2485
.ends LPS4414-822_freq

*======================================================================
* SPICE Model generated by Coilcraft
* Coilcraft Part Number : LPS4414-822
* Inductance = 8.2uH
*======================================================================
* Model Parameters:
*   Valid Frequency Range = 0.1MHz-200MHz
*   Ambient Temperature = 25 degC
*   Inductor Impedance Model
*   Use model for Time Domain simulations
*======================================================================
.subckt LPS4414-822_imp port1 port2 PARAMS: Cpar=1.677pF Ind=8.2uH
X1 port1 port2 Model1D PARAMS:
+ R1=14
+ R2=0.35
+ C= {Cpar}
+ K1=0.000001
+ K2=2.55
+ K3= {Ind}
+ K4=0.15
+ K5=0.000001
+ L=0
+ Is=0
+ a=0
+ L_Z0=0
+ L_EL=0
+ L_F0=0E6
+ PkZ=15832.2485
.ends LPS4414-822_imp

*======================================================================
* SPICE Model generated by Coilcraft
* Coilcraft Part Number : LPS4414-103
* Inductance = 10uH
*======================================================================
* Model Parameters:
*   Valid Frequency Range = 0.1MHz-200MHz
*   Ambient Temperature = 25 degC
*   Inductor Frequency Model
*   Use model for Frequency Domain simulations
*======================================================================
.subckt LPS4414-103_freq port1 port2 PARAMS: Cpar=1.6pF Ind=10uH
X1 port1 port2 Model1A PARAMS:
+ R1=14
+ R2=0.38
+ C= {Cpar}
+ K1=0.000001
+ K2=3.5
+ K3= {Ind}
+ K4=0.15
+ K5=0.000001
+ L=0
+ Is=0
+ a=0
+ L_Z0=0
+ L_EL=0
+ L_F0=0E6
+ PkZ=21264.0709
.ends LPS4414-103_freq

*======================================================================
* SPICE Model generated by Coilcraft
* Coilcraft Part Number : LPS4414-103
* Inductance = 10uH
*======================================================================
* Model Parameters:
*   Valid Frequency Range = 0.1MHz-200MHz
*   Ambient Temperature = 25 degC
*   Inductor Impedance Model
*   Use model for Time Domain simulations
*======================================================================
.subckt LPS4414-103_imp port1 port2 PARAMS: Cpar=1.512pF Ind=10uH
X1 port1 port2 Model1D PARAMS:
+ R1=14
+ R2=0.38
+ C= {Cpar}
+ K1=0.000001
+ K2=3.5
+ K3= {Ind}
+ K4=0.15
+ K5=0.000001
+ L=0
+ Is=0
+ a=0
+ L_Z0=0
+ L_EL=0
+ L_F0=0E6
+ PkZ=21264.0709
.ends LPS4414-103_imp

*======================================================================
* SPICE Model generated by Coilcraft
* Coilcraft Part Number : LPS4414-123
* Inductance = 12uH
*======================================================================
* Model Parameters:
*   Valid Frequency Range = 0.1MHz-200MHz
*   Ambient Temperature = 25 degC
*   Inductor Frequency Model
*   Use model for Frequency Domain simulations
*======================================================================
.subckt LPS4414-123_freq port1 port2 PARAMS: Cpar=2pF Ind=12uH
X1 port1 port2 Model1A PARAMS:
+ R1=10.8
+ R2=0.38
+ C= {Cpar}
+ K1=0.000001
+ K2=3.5
+ K3= {Ind}
+ K4=0.15
+ K5=0.000001
+ L=0
+ Is=0
+ a=0
+ L_Z0=0
+ L_EL=0
+ L_F0=0E6
+ PkZ=19434.475
.ends LPS4414-123_freq

*======================================================================
* SPICE Model generated by Coilcraft
* Coilcraft Part Number : LPS4414-123
* Inductance = 12uH
*======================================================================
* Model Parameters:
*   Valid Frequency Range = 0.1MHz-200MHz
*   Ambient Temperature = 25 degC
*   Inductor Impedance Model
*   Use model for Time Domain simulations
*======================================================================
.subckt LPS4414-123_imp port1 port2 PARAMS: Cpar=1.913pF Ind=12uH
X1 port1 port2 Model1D PARAMS:
+ R1=10.8
+ R2=0.38
+ C= {Cpar}
+ K1=0.000001
+ K2=3.5
+ K3= {Ind}
+ K4=0.15
+ K5=0.000001
+ L=0
+ Is=0
+ a=0
+ L_Z0=0
+ L_EL=0
+ L_F0=0E6
+ PkZ=19434.475
.ends LPS4414-123_imp

*======================================================================
* SPICE Model generated by Coilcraft
* Coilcraft Part Number : LPS4414-153
* Inductance = 15uH
*======================================================================
* Model Parameters:
*   Valid Frequency Range = 0.1MHz-200MHz
*   Ambient Temperature = 25 degC
*   Inductor Frequency Model
*   Use model for Frequency Domain simulations
*======================================================================
.subckt LPS4414-153_freq port1 port2 PARAMS: Cpar=1.7pF Ind=15uH
X1 port1 port2 Model1A PARAMS:
+ R1=12
+ R2=0.44
+ C= {Cpar}
+ K1=0.000001
+ K2=4.4
+ K3= {Ind}
+ K4=0.3
+ K5=0.000001
+ L=0
+ Is=0
+ a=0
+ L_Z0=0
+ L_EL=0
+ L_F0=0E6
+ PkZ=24255.7532
.ends LPS4414-153_freq

*======================================================================
* SPICE Model generated by Coilcraft
* Coilcraft Part Number : LPS4414-153
* Inductance = 15uH
*======================================================================
* Model Parameters:
*   Valid Frequency Range = 0.1MHz-200MHz
*   Ambient Temperature = 25 degC
*   Inductor Impedance Model
*   Use model for Time Domain simulations
*======================================================================
.subckt LPS4414-153_imp port1 port2 PARAMS: Cpar=1.583pF Ind=15uH
X1 port1 port2 Model1D PARAMS:
+ R1=12
+ R2=0.44
+ C= {Cpar}
+ K1=0.000001
+ K2=4.4
+ K3= {Ind}
+ K4=0.3
+ K5=0.000001
+ L=0
+ Is=0
+ a=0
+ L_Z0=0
+ L_EL=0
+ L_F0=0E6
+ PkZ=24255.7532
.ends LPS4414-153_imp

*======================================================================
* SPICE Model generated by Coilcraft
* Coilcraft Part Number : LPS4414-183
* Inductance = 18uH
*======================================================================
* Model Parameters:
*   Valid Frequency Range = 0.1MHz-200MHz
*   Ambient Temperature = 25 degC
*   Inductor Frequency Model
*   Use model for Frequency Domain simulations
*======================================================================
.subckt LPS4414-183_freq port1 port2 PARAMS: Cpar=1.38pF Ind=18uH
X1 port1 port2 Model1A PARAMS:
+ R1=14
+ R2=0.53
+ C= {Cpar}
+ K1=0.000001
+ K2=4.88
+ K3= {Ind}
+ K4=0.3
+ K5=0.000001
+ L=0
+ Is=0
+ a=0
+ L_Z0=0
+ L_EL=0
+ L_F0=0E6
+ PkZ=27124.821
.ends LPS4414-183_freq

*======================================================================
* SPICE Model generated by Coilcraft
* Coilcraft Part Number : LPS4414-183
* Inductance = 18uH
*======================================================================
* Model Parameters:
*   Valid Frequency Range = 0.1MHz-200MHz
*   Ambient Temperature = 25 degC
*   Inductor Impedance Model
*   Use model for Time Domain simulations
*======================================================================
.subckt LPS4414-183_imp port1 port2 PARAMS: Cpar=1.3pF Ind=18uH
X1 port1 port2 Model1D PARAMS:
+ R1=14
+ R2=0.53
+ C= {Cpar}
+ K1=0.000001
+ K2=4.88
+ K3= {Ind}
+ K4=0.3
+ K5=0.000001
+ L=0
+ Is=0
+ a=0
+ L_Z0=0
+ L_EL=0
+ L_F0=0E6
+ PkZ=27124.821
.ends LPS4414-183_imp

*======================================================================
* SPICE Model generated by Coilcraft
* Coilcraft Part Number : LPS4414-223
* Inductance = 22uH
*======================================================================
* Model Parameters:
*   Valid Frequency Range = 0.1MHz-200MHz
*   Ambient Temperature = 25 degC
*   Inductor Frequency Model
*   Use model for Frequency Domain simulations
*======================================================================
.subckt LPS4414-223_freq port1 port2 PARAMS: Cpar=1.65pF Ind=22uH
X1 port1 port2 Model1A PARAMS:
+ R1=14
+ R2=0.59
+ C= {Cpar}
+ K1=0.000001
+ K2=5.75
+ K3= {Ind}
+ K4=0.5
+ K5=0.000001
+ L=0
+ Is=0
+ a=0
+ L_Z0=0
+ L_EL=0
+ L_F0=0E6
+ PkZ=29133.3322
.ends LPS4414-223_freq

*======================================================================
* SPICE Model generated by Coilcraft
* Coilcraft Part Number : LPS4414-223
* Inductance = 22uH
*======================================================================
* Model Parameters:
*   Valid Frequency Range = 0.1MHz-200MHz
*   Ambient Temperature = 25 degC
*   Inductor Impedance Model
*   Use model for Time Domain simulations
*======================================================================
.subckt LPS4414-223_imp port1 port2 PARAMS: Cpar=1.527pF Ind=22uH
X1 port1 port2 Model1D PARAMS:
+ R1=14
+ R2=0.59
+ C= {Cpar}
+ K1=0.000001
+ K2=5.75
+ K3= {Ind}
+ K4=0.5
+ K5=0.000001
+ L=0
+ Is=0
+ a=0
+ L_Z0=0
+ L_EL=0
+ L_F0=0E6
+ PkZ=29133.3322
.ends LPS4414-223_imp

*======================================================================
* SPICE Model generated by Coilcraft
* Coilcraft Part Number : LPS4414-333
* Inductance = 33uH
*======================================================================
* Model Parameters:
*   Valid Frequency Range = 0.1MHz-200MHz
*   Ambient Temperature = 25 degC
*   Inductor Frequency Model
*   Use model for Frequency Domain simulations
*======================================================================
.subckt LPS4414-333_freq port1 port2 PARAMS: Cpar=1.51pF Ind=33uH
X1 port1 port2 Model1A PARAMS:
+ R1=15
+ R2=0.715
+ C= {Cpar}
+ K1=0.000001
+ K2=7.5
+ K3= {Ind}
+ K4=0.75
+ K5=0.000001
+ L=0
+ Is=0
+ a=0
+ L_Z0=0
+ L_EL=0
+ L_F0=0E6
+ PkZ=35325.1159
.ends LPS4414-333_freq

*======================================================================
* SPICE Model generated by Coilcraft
* Coilcraft Part Number : LPS4414-333
* Inductance = 33uH
*======================================================================
* Model Parameters:
*   Valid Frequency Range = 0.1MHz-200MHz
*   Ambient Temperature = 25 degC
*   Inductor Impedance Model
*   Use model for Time Domain simulations
*======================================================================
.subckt LPS4414-333_imp port1 port2 PARAMS: Cpar=1.403pF Ind=33uH
X1 port1 port2 Model1D PARAMS:
+ R1=15
+ R2=0.715
+ C= {Cpar}
+ K1=0.000001
+ K2=7.5
+ K3= {Ind}
+ K4=0.75
+ K5=0.000001
+ L=0
+ Is=0
+ a=0
+ L_Z0=0
+ L_EL=0
+ L_F0=0E6
+ PkZ=35325.1159
.ends LPS4414-333_imp

*======================================================================
* SPICE Model generated by Coilcraft
* Coilcraft Part Number : LPS4414-473
* Inductance = 47uH
*======================================================================
* Model Parameters:
*   Valid Frequency Range = 0.1MHz-200MHz
*   Ambient Temperature = 25 degC
*   Inductor Frequency Model
*   Use model for Frequency Domain simulations
*======================================================================
.subckt LPS4414-473_freq port1 port2 PARAMS: Cpar=1.65pF Ind=47uH
X1 port1 port2 Model1A PARAMS:
+ R1=14.8
+ R2=0.935
+ C= {Cpar}
+ K1=0.000001
+ K2=9.25
+ K3= {Ind}
+ K4=0.000001
+ K5=0.000001
+ L=0
+ Is=0
+ a=0
+ L_Z0=0
+ L_EL=0
+ L_F0=0E6
+ PkZ=38537.2327
.ends LPS4414-473_freq

*======================================================================
* SPICE Model generated by Coilcraft
* Coilcraft Part Number : LPS4414-473
* Inductance = 47uH
*======================================================================
* Model Parameters:
*   Valid Frequency Range = 0.1MHz-200MHz
*   Ambient Temperature = 25 degC
*   Inductor Impedance Model
*   Use model for Time Domain simulations
*======================================================================
.subckt LPS4414-473_imp port1 port2 PARAMS: Cpar=1.65pF Ind=47uH
X1 port1 port2 Model1D PARAMS:
+ R1=14.8
+ R2=0.935
+ C= {Cpar}
+ K1=0.000001
+ K2=9.25
+ K3= {Ind}
+ K4=0.000001
+ K5=0.000001
+ L=0
+ Is=0
+ a=0
+ L_Z0=0
+ L_EL=0
+ L_F0=0E6
+ PkZ=38537.2327
.ends LPS4414-473_imp
