*======================================================================
* SPICE Model generated by Coilcraft
* Coilcraft Part Number : LPS4010-381
* Inductance = 380nH
*======================================================================
* Model Parameters:
*   Valid Frequency Range = 0.1MHz-750MHz
*   Ambient Temperature = 25 degC
*   Inductor Frequency Model
*   Use model for Frequency Domain simulations
*======================================================================
.subckt LPS4010-381_freq port1 port2 PARAMS: Cpar=1.4pF Ind=0.38uH
X1 port1 port2 Model1A PARAMS:
+ R1=40
+ R2=0.028
+ C= {Cpar}
+ K1=0.00006
+ K2=0.04
+ K3= {Ind}
+ K4=0.000001
+ K5=0.000001
+ L=0
+ Is=0
+ a=0
+ L_Z0=0
+ L_EL=0
+ L_F0=0E6
+ PkZ=542.851505
.ends LPS4010-381_freq

*======================================================================
* SPICE Model generated by Coilcraft
* Coilcraft Part Number : LPS4010-381
* Inductance = 380nH
*======================================================================
* Model Parameters:
*   Valid Frequency Range = 0.1MHz-750MHz
*   Ambient Temperature = 25 degC
*   Inductor Impedance Model
*   Use model for Time Domain simulations
*======================================================================
.subckt LPS4010-381_imp port1 port2 PARAMS: Cpar=1.4pF Ind=0.38uH
X1 port1 port2 Model1D PARAMS:
+ R1=40
+ R2=0.028
+ C= {Cpar}
+ K1=0.00006
+ K2=0.04
+ K3= {Ind}
+ K4=0.000001
+ K5=0.000001
+ L=0
+ Is=0
+ a=0
+ L_Z0=0
+ L_EL=0
+ L_F0=0E6
+ PkZ=542.851505
.ends LPS4010-381_imp

*======================================================================
* SPICE Model generated by Coilcraft
* Coilcraft Part Number : LPS4010-601
* Inductance = 600nH
*======================================================================
* Model Parameters:
*   Valid Frequency Range = 0.1MHz-750MHz
*   Ambient Temperature = 25 degC
*   Inductor Frequency Model
*   Use model for Frequency Domain simulations
*======================================================================
.subckt LPS4010-601_freq port1 port2 PARAMS: Cpar=1.3pF Ind=0.6uH
X1 port1 port2 Model1A PARAMS:
+ R1=30
+ R2=0.034
+ C= {Cpar}
+ K1=0.00008
+ K2=0.07
+ K3= {Ind}
+ K4=0.000001
+ K5=0.000001
+ L=0
+ Is=0
+ a=0
+ L_Z0=0
+ L_EL=0
+ L_F0=0E6
+ PkZ=883.907711
.ends LPS4010-601_freq

*======================================================================
* SPICE Model generated by Coilcraft
* Coilcraft Part Number : LPS4010-601
* Inductance = 600nH
*======================================================================
* Model Parameters:
*   Valid Frequency Range = 0.1MHz-750MHz
*   Ambient Temperature = 25 degC
*   Inductor Impedance Model
*   Use model for Time Domain simulations
*======================================================================
.subckt LPS4010-601_imp port1 port2 PARAMS: Cpar=1.3pF Ind=0.6uH
X1 port1 port2 Model1D PARAMS:
+ R1=30
+ R2=0.034
+ C= {Cpar}
+ K1=0.00008
+ K2=0.07
+ K3= {Ind}
+ K4=0.000001
+ K5=0.000001
+ L=0
+ Is=0
+ a=0
+ L_Z0=0
+ L_EL=0
+ L_F0=0E6
+ PkZ=883.907711
.ends LPS4010-601_imp

*======================================================================
* SPICE Model generated by Coilcraft
* Coilcraft Part Number : LPS4010-861
* Inductance = 860nH
*======================================================================
* Model Parameters:
*   Valid Frequency Range = 0.1MHz-750MHz
*   Ambient Temperature = 25 degC
*   Inductor Frequency Model
*   Use model for Frequency Domain simulations
*======================================================================
.subckt LPS4010-861_freq port1 port2 PARAMS: Cpar=1.2pF Ind=0.86uH
X1 port1 port2 Model1A PARAMS:
+ R1=35
+ R2=0.043
+ C= {Cpar}
+ K1=0.00013
+ K2=0.12
+ K3= {Ind}
+ K4=0.000001
+ K5=0.000001
+ L=0
+ Is=0
+ a=0
+ L_Z0=0
+ L_EL=0
+ L_F0=0E6
+ PkZ=1395.12603
.ends LPS4010-861_freq

*======================================================================
* SPICE Model generated by Coilcraft
* Coilcraft Part Number : LPS4010-861
* Inductance = 860nH
*======================================================================
* Model Parameters:
*   Valid Frequency Range = 0.1MHz-750MHz
*   Ambient Temperature = 25 degC
*   Inductor Impedance Model
*   Use model for Time Domain simulations
*======================================================================
.subckt LPS4010-861_imp port1 port2 PARAMS: Cpar=1.2pF Ind=0.86uH
X1 port1 port2 Model1D PARAMS:
+ R1=35
+ R2=0.043
+ C= {Cpar}
+ K1=0.00013
+ K2=0.12
+ K3= {Ind}
+ K4=0.000001
+ K5=0.000001
+ L=0
+ Is=0
+ a=0
+ L_Z0=0
+ L_EL=0
+ L_F0=0E6
+ PkZ=1395.12603
.ends LPS4010-861_imp

*======================================================================
* SPICE Model generated by Coilcraft
* Coilcraft Part Number : LPS4010-122
* Inductance = 1.2uH
*======================================================================
* Model Parameters:
*   Valid Frequency Range = 0.1MHz-750MHz
*   Ambient Temperature = 25 degC
*   Inductor Frequency Model
*   Use model for Frequency Domain simulations
*======================================================================
.subckt LPS4010-122_freq port1 port2 PARAMS: Cpar=1.38pF Ind=1.2uH
X1 port1 port2 Model1A PARAMS:
+ R1=24
+ R2=0.066
+ C= {Cpar}
+ K1=0.000425
+ K2=0.2
+ K3= {Ind}
+ K4=0.0316
+ K5=0.00000574
+ L=0
+ Is=0
+ a=0
+ L_Z0=0
+ L_EL=0
+ L_F0=0E6
+ PkZ=2131.99589
.ends LPS4010-122_freq

*======================================================================
* SPICE Model generated by Coilcraft
* Coilcraft Part Number : LPS4010-122
* Inductance = 1.2uH
*======================================================================
* Model Parameters:
*   Valid Frequency Range = 0.1MHz-750MHz
*   Ambient Temperature = 25 degC
*   Inductor Impedance Model
*   Use model for Time Domain simulations
*======================================================================
.subckt LPS4010-122_imp port1 port2 PARAMS: Cpar=1.141pF Ind=1.2uH
X1 port1 port2 Model1D PARAMS:
+ R1=24
+ R2=0.066
+ C= {Cpar}
+ K1=0.000425
+ K2=0.2
+ K3= {Ind}
+ K4=0.0316
+ K5=0.00000574
+ L=0
+ Is=0
+ a=0
+ L_Z0=0
+ L_EL=0
+ L_F0=0E6
+ PkZ=2131.99589
.ends LPS4010-122_imp

*======================================================================
* SPICE Model generated by Coilcraft
* Coilcraft Part Number : LPS4010-152
* Inductance = 1.5uH
*======================================================================
* Model Parameters:
*   Valid Frequency Range = 0.1MHz-500MHz
*   Ambient Temperature = 25 degC
*   Inductor Frequency Model
*   Use model for Frequency Domain simulations
*======================================================================
.subckt LPS4010-152_freq port1 port2 PARAMS: Cpar=1.50000000007729pF Ind=1.5uH
X1 port1 port2 Model1A PARAMS:
+ R1=24
+ R2=0.088
+ C= {Cpar}
+ K1=0.000425
+ K2=0.29
+ K3= {Ind}
+ K4=0.0316
+ K5=1E-09
+ L=0
+ Is=0
+ a=0
+ L_Z0=0
+ L_EL=0
+ L_F0=0E6
+ PkZ=2734.69876
.ends LPS4010-152_freq

*======================================================================
* SPICE Model generated by Coilcraft
* Coilcraft Part Number : LPS4010-152
* Inductance = 1.5uH
*======================================================================
* Model Parameters:
*   Valid Frequency Range = 0.1MHz-500MHz
*   Ambient Temperature = 25 degC
*   Inductor Impedance Model
*   Use model for Time Domain simulations
*======================================================================
.subckt LPS4010-152_imp port1 port2 PARAMS: Cpar=1.571pF Ind=1.5uH
X1 port1 port2 Model1D PARAMS:
+ R1=24
+ R2=0.088
+ C= {Cpar}
+ K1=0.000425
+ K2=0.29
+ K3= {Ind}
+ K4=0.0316
+ K5=1E-09
+ L=0
+ Is=0
+ a=0
+ L_Z0=0
+ L_EL=0
+ L_F0=0E6
+ PkZ=2734.69876
.ends LPS4010-152_imp

*======================================================================
* SPICE Model generated by Coilcraft
* Coilcraft Part Number : LPS4010-222
* Inductance = 2.2uH
*======================================================================
* Model Parameters:
*   Valid Frequency Range = 0.1MHz-500MHz
*   Ambient Temperature = 25 degC
*   Inductor Frequency Model
*   Use model for Frequency Domain simulations
*======================================================================
.subckt LPS4010-222_freq port1 port2 PARAMS: Cpar=1.26pF Ind=2uH
X1 port1 port2 Model1A PARAMS:
+ R1=18
+ R2=0.1
+ C= {Cpar}
+ K1=0.00011
+ K2=0.38
+ K3= {Ind}
+ K4=0.0316
+ K5=1E-09
+ L=0
+ Is=0
+ a=0
+ L_Z0=0
+ L_EL=0
+ L_F0=0E6
+ PkZ=3613.10217
.ends LPS4010-222_freq

*======================================================================
* SPICE Model generated by Coilcraft
* Coilcraft Part Number : LPS4010-222
* Inductance = 2.2uH
*======================================================================
* Model Parameters:
*   Valid Frequency Range = 0.1MHz-500MHz
*   Ambient Temperature = 25 degC
*   Inductor Impedance Model
*   Use model for Time Domain simulations
*======================================================================
.subckt LPS4010-222_imp port1 port2 PARAMS: Cpar=1.306pF Ind=2uH
X1 port1 port2 Model1D PARAMS:
+ R1=18
+ R2=0.1
+ C= {Cpar}
+ K1=0.00011
+ K2=0.38
+ K3= {Ind}
+ K4=0.0316
+ K5=1E-09
+ L=0
+ Is=0
+ a=0
+ L_Z0=0
+ L_EL=0
+ L_F0=0E6
+ PkZ=3613.10217
.ends LPS4010-222_imp

*======================================================================
* SPICE Model generated by Coilcraft
* Coilcraft Part Number : LPS4010-332
* Inductance = 3.3uH
*======================================================================
* Model Parameters:
*   Valid Frequency Range = 0.1MHz-500MHz
*   Ambient Temperature = 25 degC
*   Inductor Frequency Model
*   Use model for Frequency Domain simulations
*======================================================================
.subckt LPS4010-332_freq port1 port2 PARAMS: Cpar=1.61pF Ind=3.3uH
X1 port1 port2 Model1A PARAMS:
+ R1=12
+ R2=0.14
+ C= {Cpar}
+ K1=0.00025
+ K2=0.595
+ K3= {Ind}
+ K4=0.088
+ K5=0.000033
+ L=0
+ Is=0
+ a=0
+ L_Z0=0
+ L_EL=0
+ L_F0=0E6
+ PkZ=5008.23081
.ends LPS4010-332_freq

*======================================================================
* SPICE Model generated by Coilcraft
* Coilcraft Part Number : LPS4010-332
* Inductance = 3.3uH
*======================================================================
* Model Parameters:
*   Valid Frequency Range = 0.1MHz-500MHz
*   Ambient Temperature = 25 degC
*   Inductor Impedance Model
*   Use model for Time Domain simulations
*======================================================================
.subckt LPS4010-332_imp port1 port2 PARAMS: Cpar=1.278pF Ind=3.3uH
X1 port1 port2 Model1D PARAMS:
+ R1=12
+ R2=0.14
+ C= {Cpar}
+ K1=0.00025
+ K2=0.595
+ K3= {Ind}
+ K4=0.088
+ K5=0.000033
+ L=0
+ Is=0
+ a=0
+ L_Z0=0
+ L_EL=0
+ L_F0=0E6
+ PkZ=5008.23081
.ends LPS4010-332_imp

*======================================================================
* SPICE Model generated by Coilcraft
* Coilcraft Part Number : LPS4010-472
* Inductance = 4.7uH
*======================================================================
* Model Parameters:
*   Valid Frequency Range = 0.1MHz-250MHz
*   Ambient Temperature = 25 degC
*   Inductor Frequency Model
*   Use model for Frequency Domain simulations
*======================================================================
.subckt LPS4010-472_freq port1 port2 PARAMS: Cpar=1.63pF Ind=4.7uH
X1 port1 port2 Model1A PARAMS:
+ R1=15
+ R2=0.245
+ C= {Cpar}
+ K1=0.00039
+ K2=1.05
+ K3= {Ind}
+ K4=0.087
+ K5=0.0000039
+ L=0
+ Is=0
+ a=0
+ L_Z0=0
+ L_EL=0
+ L_F0=0E6
+ PkZ=7735.44714
.ends LPS4010-472_freq

*======================================================================
* SPICE Model generated by Coilcraft
* Coilcraft Part Number : LPS4010-472
* Inductance = 4.7uH
*======================================================================
* Model Parameters:
*   Valid Frequency Range = 0.1MHz-250MHz
*   Ambient Temperature = 25 degC
*   Inductor Impedance Model
*   Use model for Time Domain simulations
*======================================================================
.subckt LPS4010-472_imp port1 port2 PARAMS: Cpar=1.467pF Ind=4.7uH
X1 port1 port2 Model1D PARAMS:
+ R1=15
+ R2=0.245
+ C= {Cpar}
+ K1=0.00039
+ K2=1.05
+ K3= {Ind}
+ K4=0.087
+ K5=0.0000039
+ L=0
+ Is=0
+ a=0
+ L_Z0=0
+ L_EL=0
+ L_F0=0E6
+ PkZ=7735.44714
.ends LPS4010-472_imp

*======================================================================
* SPICE Model generated by Coilcraft
* Coilcraft Part Number : LPS4010-562
* Inductance = 5.6uH
*======================================================================
* Model Parameters:
*   Valid Frequency Range = 0.1MHz-250MHz
*   Ambient Temperature = 25 degC
*   Inductor Frequency Model
*   Use model for Frequency Domain simulations
*======================================================================
.subckt LPS4010-562_freq port1 port2 PARAMS: Cpar=1.55pF Ind=5.6uH
X1 port1 port2 Model1A PARAMS:
+ R1=17
+ R2=0.26
+ C= {Cpar}
+ K1=0.000001
+ K2=1.07
+ K3= {Ind}
+ K4=0.11
+ K5=0.00000811
+ L=0
+ Is=0
+ a=0
+ L_Z0=0
+ L_EL=0
+ L_F0=0E6
+ PkZ=7780.95926
.ends LPS4010-562_freq

*======================================================================
* SPICE Model generated by Coilcraft
* Coilcraft Part Number : LPS4010-562
* Inductance = 5.6uH
*======================================================================
* Model Parameters:
*   Valid Frequency Range = 0.1MHz-250MHz
*   Ambient Temperature = 25 degC
*   Inductor Impedance Model
*   Use model for Time Domain simulations
*======================================================================
.subckt LPS4010-562_imp port1 port2 PARAMS: Cpar=1.365pF Ind=5.6uH
X1 port1 port2 Model1D PARAMS:
+ R1=17
+ R2=0.26
+ C= {Cpar}
+ K1=0.000001
+ K2=1.07
+ K3= {Ind}
+ K4=0.11
+ K5=0.00000811
+ L=0
+ Is=0
+ a=0
+ L_Z0=0
+ L_EL=0
+ L_F0=0E6
+ PkZ=7780.95926
.ends LPS4010-562_imp

*======================================================================
* SPICE Model generated by Coilcraft
* Coilcraft Part Number : LPS4010-682
* Inductance = 6.8uH
*======================================================================
* Model Parameters:
*   Valid Frequency Range = 0.1MHz-250MHz
*   Ambient Temperature = 25 degC
*   Inductor Frequency Model
*   Use model for Frequency Domain simulations
*======================================================================
.subckt LPS4010-682_freq port1 port2 PARAMS: Cpar=1.47pF Ind=6.8uH
X1 port1 port2 Model1A PARAMS:
+ R1=16
+ R2=0.311
+ C= {Cpar}
+ K1=0.0004
+ K2=1.53
+ K3= {Ind}
+ K4=0.14
+ K5=0.0000048
+ L=0
+ Is=0
+ a=0
+ L_Z0=0
+ L_EL=0
+ L_F0=0E6
+ PkZ=10636.7057
.ends LPS4010-682_freq

*======================================================================
* SPICE Model generated by Coilcraft
* Coilcraft Part Number : LPS4010-682
* Inductance = 6.8uH
*======================================================================
* Model Parameters:
*   Valid Frequency Range = 0.1MHz-250MHz
*   Ambient Temperature = 25 degC
*   Inductor Impedance Model
*   Use model for Time Domain simulations
*======================================================================
.subckt LPS4010-682_imp port1 port2 PARAMS: Cpar=1.304pF Ind=6.8uH
X1 port1 port2 Model1D PARAMS:
+ R1=16
+ R2=0.311
+ C= {Cpar}
+ K1=0.0004
+ K2=1.53
+ K3= {Ind}
+ K4=0.14
+ K5=0.0000048
+ L=0
+ Is=0
+ a=0
+ L_Z0=0
+ L_EL=0
+ L_F0=0E6
+ PkZ=10636.7057
.ends LPS4010-682_imp

*======================================================================
* SPICE Model generated by Coilcraft
* Coilcraft Part Number : LPS4010-822
* Inductance = 8.2uH
*======================================================================
* Model Parameters:
*   Valid Frequency Range = 0.1MHz-250MHz
*   Ambient Temperature = 25 degC
*   Inductor Frequency Model
*   Use model for Frequency Domain simulations
*======================================================================
.subckt LPS4010-822_freq port1 port2 PARAMS: Cpar=1.67pF Ind=8.2uH
X1 port1 port2 Model1A PARAMS:
+ R1=12
+ R2=0.43
+ C= {Cpar}
+ K1=0.00039
+ K2=1.96
+ K3= {Ind}
+ K4=0.15
+ K5=0.0000032
+ L=0
+ Is=0
+ a=0
+ L_Z0=0
+ L_EL=0
+ L_F0=0E6
+ PkZ=12617.5422
.ends LPS4010-822_freq

*======================================================================
* SPICE Model generated by Coilcraft
* Coilcraft Part Number : LPS4010-822
* Inductance = 8.2uH
*======================================================================
* Model Parameters:
*   Valid Frequency Range = 0.1MHz-250MHz
*   Ambient Temperature = 25 degC
*   Inductor Impedance Model
*   Use model for Time Domain simulations
*======================================================================
.subckt LPS4010-822_imp port1 port2 PARAMS: Cpar=1.52pF Ind=8.2uH
X1 port1 port2 Model1D PARAMS:
+ R1=12
+ R2=0.43
+ C= {Cpar}
+ K1=0.00039
+ K2=1.96
+ K3= {Ind}
+ K4=0.15
+ K5=0.0000032
+ L=0
+ Is=0
+ a=0
+ L_Z0=0
+ L_EL=0
+ L_F0=0E6
+ PkZ=12617.5422
.ends LPS4010-822_imp

*======================================================================
* SPICE Model generated by Coilcraft
* Coilcraft Part Number : LPS4010-103
* Inductance = 10uH
*======================================================================
* Model Parameters:
*   Valid Frequency Range = 0.1MHz-250MHz
*   Ambient Temperature = 25 degC
*   Inductor Frequency Model
*   Use model for Frequency Domain simulations
*======================================================================
.subckt LPS4010-103_freq port1 port2 PARAMS: Cpar=1.36pF Ind=10uH
X1 port1 port2 Model1A PARAMS:
+ R1=12
+ R2=0.468
+ C= {Cpar}
+ K1=0.000295
+ K2=2.4
+ K3= {Ind}
+ K4=0.198
+ K5=0.00000735
+ L=0
+ Is=0
+ a=0
+ L_Z0=0
+ L_EL=0
+ L_F0=0E6
+ PkZ=15702.4946
.ends LPS4010-103_freq

*======================================================================
* SPICE Model generated by Coilcraft
* Coilcraft Part Number : LPS4010-103
* Inductance = 10uH
*======================================================================
* Model Parameters:
*   Valid Frequency Range = 0.1MHz-250MHz
*   Ambient Temperature = 25 degC
*   Inductor Impedance Model
*   Use model for Time Domain simulations
*======================================================================
.subckt LPS4010-103_imp port1 port2 PARAMS: Cpar=1.205pF Ind=10uH
X1 port1 port2 Model1D PARAMS:
+ R1=12
+ R2=0.468
+ C= {Cpar}
+ K1=0.000295
+ K2=2.4
+ K3= {Ind}
+ K4=0.198
+ K5=0.00000735
+ L=0
+ Is=0
+ a=0
+ L_Z0=0
+ L_EL=0
+ L_F0=0E6
+ PkZ=15702.4946
.ends LPS4010-103_imp

*======================================================================
* SPICE Model generated by Coilcraft
* Coilcraft Part Number : LPS4010-123
* Inductance = 12uH
*======================================================================
* Model Parameters:
*   Valid Frequency Range = 0.1MHz-250MHz
*   Ambient Temperature = 25 degC
*   Inductor Frequency Model
*   Use model for Frequency Domain simulations
*======================================================================
.subckt LPS4010-123_freq port1 port2 PARAMS: Cpar=1.43pF Ind=12uH
X1 port1 port2 Model1A PARAMS:
+ R1=12
+ R2=0.63
+ C= {Cpar}
+ K1=0.000294
+ K2=3.03
+ K3= {Ind}
+ K4=0.223
+ K5=0.00000525
+ L=0
+ Is=0
+ a=0
+ L_Z0=0
+ L_EL=0
+ L_F0=0E6
+ PkZ=18617.0121
.ends LPS4010-123_freq

*======================================================================
* SPICE Model generated by Coilcraft
* Coilcraft Part Number : LPS4010-123
* Inductance = 12uH
*======================================================================
* Model Parameters:
*   Valid Frequency Range = 0.1MHz-250MHz
*   Ambient Temperature = 25 degC
*   Inductor Impedance Model
*   Use model for Time Domain simulations
*======================================================================
.subckt LPS4010-123_imp port1 port2 PARAMS: Cpar=1.289pF Ind=12uH
X1 port1 port2 Model1D PARAMS:
+ R1=12
+ R2=0.63
+ C= {Cpar}
+ K1=0.000294
+ K2=3.03
+ K3= {Ind}
+ K4=0.223
+ K5=0.00000525
+ L=0
+ Is=0
+ a=0
+ L_Z0=0
+ L_EL=0
+ L_F0=0E6
+ PkZ=18617.0121
.ends LPS4010-123_imp

*======================================================================
* SPICE Model generated by Coilcraft
* Coilcraft Part Number : LPS4010-153
* Inductance = 15uH
*======================================================================
* Model Parameters:
*   Valid Frequency Range = 0.1MHz-100MHz
*   Ambient Temperature = 25 degC
*   Inductor Frequency Model
*   Use model for Frequency Domain simulations
*======================================================================
.subckt LPS4010-153_freq port1 port2 PARAMS: Cpar=1.81pF Ind=15uH
X1 port1 port2 Model1A PARAMS:
+ R1=11
+ R2=0.7
+ C= {Cpar}
+ K1=0.000291
+ K2=3.98
+ K3= {Ind}
+ K4=0.565
+ K5=0.00000159
+ L=0
+ Is=0
+ a=0
+ L_Z0=0
+ L_EL=0
+ L_F0=0E6
+ PkZ=21972.921
.ends LPS4010-153_freq

*======================================================================
* SPICE Model generated by Coilcraft
* Coilcraft Part Number : LPS4010-153
* Inductance = 15uH
*======================================================================
* Model Parameters:
*   Valid Frequency Range = 0.1MHz-100MHz
*   Ambient Temperature = 25 degC
*   Inductor Impedance Model
*   Use model for Time Domain simulations
*======================================================================
.subckt LPS4010-153_imp port1 port2 PARAMS: Cpar=1.545pF Ind=15uH
X1 port1 port2 Model1D PARAMS:
+ R1=11
+ R2=0.7
+ C= {Cpar}
+ K1=0.000291
+ K2=3.98
+ K3= {Ind}
+ K4=0.565
+ K5=0.00000159
+ L=0
+ Is=0
+ a=0
+ L_Z0=0
+ L_EL=0
+ L_F0=0E6
+ PkZ=21972.921
.ends LPS4010-153_imp

*======================================================================
* SPICE Model generated by Coilcraft
* Coilcraft Part Number : LPS4010-183
* Inductance = 18uH
*======================================================================
* Model Parameters:
*   Valid Frequency Range = 0.1MHz-100MHz
*   Ambient Temperature = 25 degC
*   Inductor Frequency Model
*   Use model for Frequency Domain simulations
*======================================================================
.subckt LPS4010-183_freq port1 port2 PARAMS: Cpar=1.51pF Ind=18uH
X1 port1 port2 Model1A PARAMS:
+ R1=4
+ R2=0.775
+ C= {Cpar}
+ K1=0.00141
+ K2=4.07
+ K3= {Ind}
+ K4=0.175
+ K5=0.000444
+ L=0
+ Is=0
+ a=0
+ L_Z0=0
+ L_EL=0
+ L_F0=0E6
+ PkZ=22466.8286
.ends LPS4010-183_freq

*======================================================================
* SPICE Model generated by Coilcraft
* Coilcraft Part Number : LPS4010-183
* Inductance = 18uH
*======================================================================
* Model Parameters:
*   Valid Frequency Range = 0.1MHz-100MHz
*   Ambient Temperature = 25 degC
*   Inductor Impedance Model
*   Use model for Time Domain simulations
*======================================================================
.subckt LPS4010-183_imp port1 port2 PARAMS: Cpar=1.37pF Ind=18uH
X1 port1 port2 Model1D PARAMS:
+ R1=4
+ R2=0.775
+ C= {Cpar}
+ K1=0.00141
+ K2=4.07
+ K3= {Ind}
+ K4=0.175
+ K5=0.000444
+ L=0
+ Is=0
+ a=0
+ L_Z0=0
+ L_EL=0
+ L_F0=0E6
+ PkZ=22466.8286
.ends LPS4010-183_imp

*======================================================================
* SPICE Model generated by Coilcraft
* Coilcraft Part Number : LPS4010-223
* Inductance = 22uH
*======================================================================
* Model Parameters:
*   Valid Frequency Range = 0.1MHz-100MHz
*   Ambient Temperature = 25 degC
*   Inductor Frequency Model
*   Use model for Frequency Domain simulations
*======================================================================
.subckt LPS4010-223_freq port1 port2 PARAMS: Cpar=1.6pF Ind=22uH
X1 port1 port2 Model1A PARAMS:
+ R1=4
+ R2=1.04
+ C= {Cpar}
+ K1=0.00084
+ K2=5.16
+ K3= {Ind}
+ K4=0.335
+ K5=0.00000134
+ L=0
+ Is=0
+ a=0
+ L_Z0=0
+ L_EL=0
+ L_F0=0E6
+ PkZ=26636.3249
.ends LPS4010-223_freq

*======================================================================
* SPICE Model generated by Coilcraft
* Coilcraft Part Number : LPS4010-223
* Inductance = 22uH
*======================================================================
* Model Parameters:
*   Valid Frequency Range = 0.1MHz-100MHz
*   Ambient Temperature = 25 degC
*   Inductor Impedance Model
*   Use model for Time Domain simulations
*======================================================================
.subckt LPS4010-223_imp port1 port2 PARAMS: Cpar=1.513pF Ind=22uH
X1 port1 port2 Model1D PARAMS:
+ R1=4
+ R2=1.04
+ C= {Cpar}
+ K1=0.00084
+ K2=5.16
+ K3= {Ind}
+ K4=0.335
+ K5=0.00000134
+ L=0
+ Is=0
+ a=0
+ L_Z0=0
+ L_EL=0
+ L_F0=0E6
+ PkZ=26636.3249
.ends LPS4010-223_imp

*======================================================================
* SPICE Model generated by Coilcraft
* Coilcraft Part Number : LPS4010-333
* Inductance = 33uH
*======================================================================
* Model Parameters:
*   Valid Frequency Range = 0.1MHz-100MHz
*   Ambient Temperature = 25 degC
*   Inductor Frequency Model
*   Use model for Frequency Domain simulations
*======================================================================
.subckt LPS4010-333_freq port1 port2 PARAMS: Cpar=1.42pF Ind=33uH
X1 port1 port2 Model1A PARAMS:
+ R1=4
+ R2=1.65
+ C= {Cpar}
+ K1=0.000826
+ K2=7.93
+ K3= {Ind}
+ K4=0.242
+ K5=0.000049
+ L=0
+ Is=0
+ a=0
+ L_Z0=0
+ L_EL=0
+ L_F0=0E6
+ PkZ=38208.5608
.ends LPS4010-333_freq

*======================================================================
* SPICE Model generated by Coilcraft
* Coilcraft Part Number : LPS4010-333
* Inductance = 33uH
*======================================================================
* Model Parameters:
*   Valid Frequency Range = 0.1MHz-100MHz
*   Ambient Temperature = 25 degC
*   Inductor Impedance Model
*   Use model for Time Domain simulations
*======================================================================
.subckt LPS4010-333_imp port1 port2 PARAMS: Cpar=1.347pF Ind=33uH
X1 port1 port2 Model1D PARAMS:
+ R1=4
+ R2=1.65
+ C= {Cpar}
+ K1=0.000826
+ K2=7.93
+ K3= {Ind}
+ K4=0.242
+ K5=0.000049
+ L=0
+ Is=0
+ a=0
+ L_Z0=0
+ L_EL=0
+ L_F0=0E6
+ PkZ=38208.5608
.ends LPS4010-333_imp

*======================================================================
* SPICE Model generated by Coilcraft
* Coilcraft Part Number : LPS4010-473
* Inductance = 47uH
*======================================================================
* Model Parameters:
*   Valid Frequency Range = 0.1MHz-100MHz
*   Ambient Temperature = 25 degC
*   Inductor Frequency Model
*   Use model for Frequency Domain simulations
*======================================================================
.subckt LPS4010-473_freq port1 port2 PARAMS: Cpar=1.5pF Ind=47uH
X1 port1 port2 Model1A PARAMS:
+ R1=4
+ R2=2.23
+ C= {Cpar}
+ K1=0.000824
+ K2=11.58
+ K3= {Ind}
+ K4=0.246
+ K5=0.0000491
+ L=0
+ Is=0
+ a=0
+ L_Z0=0
+ L_EL=0
+ L_F0=0E6
+ PkZ=50235.2013
.ends LPS4010-473_freq

*======================================================================
* SPICE Model generated by Coilcraft
* Coilcraft Part Number : LPS4010-473
* Inductance = 47uH
*======================================================================
* Model Parameters:
*   Valid Frequency Range = 0.1MHz-100MHz
*   Ambient Temperature = 25 degC
*   Inductor Impedance Model
*   Use model for Time Domain simulations
*======================================================================
.subckt LPS4010-473_imp port1 port2 PARAMS: Cpar=1.446pF Ind=47uH
X1 port1 port2 Model1D PARAMS:
+ R1=4
+ R2=2.23
+ C= {Cpar}
+ K1=0.000824
+ K2=11.58
+ K3= {Ind}
+ K4=0.246
+ K5=0.0000491
+ L=0
+ Is=0
+ a=0
+ L_Z0=0
+ L_EL=0
+ L_F0=0E6
+ PkZ=50235.2013
.ends LPS4010-473_imp

*======================================================================
* SPICE Model generated by Coilcraft
* Coilcraft Part Number : LPS4010-683
* Inductance = 68uH
*======================================================================
* Model Parameters:
*   Valid Frequency Range = 0.1MHz-100MHz
*   Ambient Temperature = 25 degC
*   Inductor Frequency Model
*   Use model for Frequency Domain simulations
*======================================================================
.subckt LPS4010-683_freq port1 port2 PARAMS: Cpar=1.65pF Ind=68uH
X1 port1 port2 Model1A PARAMS:
+ R1=4
+ R2=2.97
+ C= {Cpar}
+ K1=0.000823
+ K2=14.52
+ K3= {Ind}
+ K4=0.247
+ K5=0.0000491
+ L=0
+ Is=0
+ a=0
+ L_Z0=0
+ L_EL=0
+ L_F0=0E6
+ PkZ=56059.8176
.ends LPS4010-683_freq

*======================================================================
* SPICE Model generated by Coilcraft
* Coilcraft Part Number : LPS4010-683
* Inductance = 68uH
*======================================================================
* Model Parameters:
*   Valid Frequency Range = 0.1MHz-100MHz
*   Ambient Temperature = 25 degC
*   Inductor Impedance Model
*   Use model for Time Domain simulations
*======================================================================
.subckt LPS4010-683_imp port1 port2 PARAMS: Cpar=1.61pF Ind=68uH
X1 port1 port2 Model1D PARAMS:
+ R1=4
+ R2=2.97
+ C= {Cpar}
+ K1=0.000823
+ K2=14.52
+ K3= {Ind}
+ K4=0.247
+ K5=0.0000491
+ L=0
+ Is=0
+ a=0
+ L_Z0=0
+ L_EL=0
+ L_F0=0E6
+ PkZ=56059.8176
.ends LPS4010-683_imp
