*======================================================================
* SPICE Model generated by Coilcraft
* Coilcraft Part Number : LPS5050-154
* Inductance = 150uH
*======================================================================
* Model Parameters:
*   Valid Frequency Range = 0.1MHz-25MHz
*   Ambient Temperature = 25 degC
*   Inductor Frequency Model
*   Use model for Frequency Domain simulations
*======================================================================
.subckt LPS5050-154_freq port1 port2 PARAMS: Cpar=4.79pF Ind=150uH
X1 port1 port2 Model1A PARAMS:
+ R1=12
+ R2=0.555
+ C= {Cpar}
+ K1=0.00508
+ K2=19.79
+ K3= {Ind}
+ K4=0.0823
+ K5=0.131
+ L=0
+ Is=0
+ a=0
+ L_Z0=0
+ L_EL=0
+ L_F0=0E6
+ PkZ=46547.6702
.ends LPS5050-154_freq

*======================================================================
* SPICE Model generated by Coilcraft
* Coilcraft Part Number : LPS5050-154
* Inductance = 150uH
*======================================================================
* Model Parameters:
*   Valid Frequency Range = 0.1MHz-25MHz
*   Ambient Temperature = 25 degC
*   Inductor Impedance Model
*   Use model for Time Domain simulations
*======================================================================
.subckt LPS5050-154_imp port1 port2 PARAMS: Cpar=4.754pF Ind=150uH
X1 port1 port2 Model1D PARAMS:
+ R1=12
+ R2=0.555
+ C= {Cpar}
+ K1=0.00508
+ K2=19.79
+ K3= {Ind}
+ K4=0.0823
+ K5=0.131
+ L=0
+ Is=0
+ a=0
+ L_Z0=0
+ L_EL=0
+ L_F0=0E6
+ PkZ=46547.6702
.ends LPS5050-154_imp

*======================================================================
* SPICE Model generated by Coilcraft
* Coilcraft Part Number : LPS5050-224
* Inductance = 220uH
*======================================================================
* Model Parameters:
*   Valid Frequency Range = 0.1MHz-25MHz
*   Ambient Temperature = 25 degC
*   Inductor Frequency Model
*   Use model for Frequency Domain simulations
*======================================================================
.subckt LPS5050-224_freq port1 port2 PARAMS: Cpar=4.6pF Ind=220uH
X1 port1 port2 Model1A PARAMS:
+ R1=22
+ R2=0.625
+ C= {Cpar}
+ K1=0.0012
+ K2=30.99
+ K3= {Ind}
+ K4=0.205
+ K5=0.15
+ L=0
+ Is=0
+ a=0
+ L_Z0=0
+ L_EL=0
+ L_F0=0E6
+ PkZ=67097.6568
.ends LPS5050-224_freq

*======================================================================
* SPICE Model generated by Coilcraft
* Coilcraft Part Number : LPS5050-224
* Inductance = 220uH
*======================================================================
* Model Parameters:
*   Valid Frequency Range = 0.1MHz-25MHz
*   Ambient Temperature = 25 degC
*   Inductor Impedance Model
*   Use model for Time Domain simulations
*======================================================================
.subckt LPS5050-224_imp port1 port2 PARAMS: Cpar=4.542pF Ind=220uH
X1 port1 port2 Model1D PARAMS:
+ R1=22
+ R2=0.625
+ C= {Cpar}
+ K1=0.0012
+ K2=30.99
+ K3= {Ind}
+ K4=0.205
+ K5=0.15
+ L=0
+ Is=0
+ a=0
+ L_Z0=0
+ L_EL=0
+ L_F0=0E6
+ PkZ=67097.6568
.ends LPS5050-224_imp

*======================================================================
* SPICE Model generated by Coilcraft
* Coilcraft Part Number : LPS5050-334
* Inductance = 330uH
*======================================================================
* Model Parameters:
*   Valid Frequency Range = 0.1MHz-25MHz
*   Ambient Temperature = 25 degC
*   Inductor Frequency Model
*   Use model for Frequency Domain simulations
*======================================================================
.subckt LPS5050-334_freq port1 port2 PARAMS: Cpar=5.24pF Ind=330uH
X1 port1 port2 Model1A PARAMS:
+ R1=21
+ R2=0.935
+ C= {Cpar}
+ K1=0.000001
+ K2=45.71
+ K3= {Ind}
+ K4=0.498
+ K5=0.744
+ L=0
+ Is=0
+ a=0
+ L_Z0=0
+ L_EL=0
+ L_F0=0E6
+ PkZ=87257.7072
.ends LPS5050-334_freq

*======================================================================
* SPICE Model generated by Coilcraft
* Coilcraft Part Number : LPS5050-334
* Inductance = 330uH
*======================================================================
* Model Parameters:
*   Valid Frequency Range = 0.1MHz-25MHz
*   Ambient Temperature = 25 degC
*   Inductor Impedance Model
*   Use model for Time Domain simulations
*======================================================================
.subckt LPS5050-334_imp port1 port2 PARAMS: Cpar=5.122pF Ind=330uH
X1 port1 port2 Model1D PARAMS:
+ R1=21
+ R2=0.935
+ C= {Cpar}
+ K1=0.000001
+ K2=45.71
+ K3= {Ind}
+ K4=0.498
+ K5=0.744
+ L=0
+ Is=0
+ a=0
+ L_Z0=0
+ L_EL=0
+ L_F0=0E6
+ PkZ=87257.7072
.ends LPS5050-334_imp

*======================================================================
* SPICE Model generated by Coilcraft
* Coilcraft Part Number : LPS5050-474
* Inductance = 470uH
*======================================================================
* Model Parameters:
*   Valid Frequency Range = 0.1MHz-25MHz
*   Ambient Temperature = 25 degC
*   Inductor Frequency Model
*   Use model for Frequency Domain simulations
*======================================================================
.subckt LPS5050-474_freq port1 port2 PARAMS: Cpar=5.05pF Ind=470uH
X1 port1 port2 Model1A PARAMS:
+ R1=17
+ R2=1.22
+ C= {Cpar}
+ K1=0.000001
+ K2=59.25
+ K3= {Ind}
+ K4=0.427
+ K5=0.744
+ L=0
+ Is=0
+ a=0
+ L_Z0=0
+ L_EL=0
+ L_F0=0E6
+ PkZ=105356.397
.ends LPS5050-474_freq

*======================================================================
* SPICE Model generated by Coilcraft
* Coilcraft Part Number : LPS5050-474
* Inductance = 470uH
*======================================================================
* Model Parameters:
*   Valid Frequency Range = 0.1MHz-25MHz
*   Ambient Temperature = 25 degC
*   Inductor Impedance Model
*   Use model for Time Domain simulations
*======================================================================
.subckt LPS5050-474_imp port1 port2 PARAMS: Cpar=4.983pF Ind=470uH
X1 port1 port2 Model1D PARAMS:
+ R1=17
+ R2=1.22
+ C= {Cpar}
+ K1=0.000001
+ K2=59.25
+ K3= {Ind}
+ K4=0.427
+ K5=0.744
+ L=0
+ Is=0
+ a=0
+ L_Z0=0
+ L_EL=0
+ L_F0=0E6
+ PkZ=105356.397
.ends LPS5050-474_imp

*======================================================================
* SPICE Model generated by Coilcraft
* Coilcraft Part Number : LPS5050-564
* Inductance = 560uH
*======================================================================
* Model Parameters:
*   Valid Frequency Range = 0.1MHz-25MHz
*   Ambient Temperature = 25 degC
*   Inductor Frequency Model
*   Use model for Frequency Domain simulations
*======================================================================
.subckt LPS5050-564_freq port1 port2 PARAMS: Cpar=5.02pF Ind=560uH
X1 port1 port2 Model1A PARAMS:
+ R1=20
+ R2=1.51
+ C= {Cpar}
+ K1=0.000001
+ K2=68.23
+ K3= {Ind}
+ K4=0.000001
+ K5=0.693
+ L=0
+ Is=0
+ a=0
+ L_Z0=0
+ L_EL=0
+ L_F0=0E6
+ PkZ=115760.199
.ends LPS5050-564_freq

*======================================================================
* SPICE Model generated by Coilcraft
* Coilcraft Part Number : LPS5050-564
* Inductance = 560uH
*======================================================================
* Model Parameters:
*   Valid Frequency Range = 0.1MHz-25MHz
*   Ambient Temperature = 25 degC
*   Inductor Impedance Model
*   Use model for Time Domain simulations
*======================================================================
.subckt LPS5050-564_imp port1 port2 PARAMS: Cpar=5.02pF Ind=560uH
X1 port1 port2 Model1D PARAMS:
+ R1=20
+ R2=1.51
+ C= {Cpar}
+ K1=0.000001
+ K2=68.23
+ K3= {Ind}
+ K4=0.000001
+ K5=0.693
+ L=0
+ Is=0
+ a=0
+ L_Z0=0
+ L_EL=0
+ L_F0=0E6
+ PkZ=115760.199
.ends LPS5050-564_imp

*======================================================================
* SPICE Model generated by Coilcraft
* Coilcraft Part Number : LPS5050-684
* Inductance = 680uH
*======================================================================
* Model Parameters:
*   Valid Frequency Range = 0.1MHz-25MHz
*   Ambient Temperature = 25 degC
*   Inductor Frequency Model
*   Use model for Frequency Domain simulations
*======================================================================
.subckt LPS5050-684_freq port1 port2 PARAMS: Cpar=5.96pF Ind=680uH
X1 port1 port2 Model1A PARAMS:
+ R1=23
+ R2=1.76
+ C= {Cpar}
+ K1=0.000001
+ K2=78.93
+ K3= {Ind}
+ K4=0.000001
+ K5=0.693
+ L=0
+ Is=0
+ a=0
+ L_Z0=0
+ L_EL=0
+ L_F0=0E6
+ PkZ=121738.545
.ends LPS5050-684_freq

*======================================================================
* SPICE Model generated by Coilcraft
* Coilcraft Part Number : LPS5050-684
* Inductance = 680uH
*======================================================================
* Model Parameters:
*   Valid Frequency Range = 0.1MHz-25MHz
*   Ambient Temperature = 25 degC
*   Inductor Impedance Model
*   Use model for Time Domain simulations
*======================================================================
.subckt LPS5050-684_imp port1 port2 PARAMS: Cpar=5.96pF Ind=680uH
X1 port1 port2 Model1D PARAMS:
+ R1=23
+ R2=1.76
+ C= {Cpar}
+ K1=0.000001
+ K2=78.93
+ K3= {Ind}
+ K4=0.000001
+ K5=0.693
+ L=0
+ Is=0
+ a=0
+ L_Z0=0
+ L_EL=0
+ L_F0=0E6
+ PkZ=121738.545
.ends LPS5050-684_imp

*======================================================================
* SPICE Model generated by Coilcraft
* Coilcraft Part Number : LPS5050-824
* Inductance = 820uH
*======================================================================
* Model Parameters:
*   Valid Frequency Range = 0.1MHz-25MHz
*   Ambient Temperature = 25 degC
*   Inductor Frequency Model
*   Use model for Frequency Domain simulations
*======================================================================
.subckt LPS5050-824_freq port1 port2 PARAMS: Cpar=5.59pF Ind=820uH
X1 port1 port2 Model1A PARAMS:
+ R1=35
+ R2=2.2
+ C= {Cpar}
+ K1=0.000001
+ K2=102
+ K3= {Ind}
+ K4=0.57
+ K5=0.963
+ L=0
+ Is=0
+ a=0
+ L_Z0=0
+ L_EL=0
+ L_F0=0E6
+ PkZ=151080.543
.ends LPS5050-824_freq

*======================================================================
* SPICE Model generated by Coilcraft
* Coilcraft Part Number : LPS5050-824
* Inductance = 820uH
*======================================================================
* Model Parameters:
*   Valid Frequency Range = 0.1MHz-25MHz
*   Ambient Temperature = 25 degC
*   Inductor Impedance Model
*   Use model for Time Domain simulations
*======================================================================
.subckt LPS5050-824_imp port1 port2 PARAMS: Cpar=5.533pF Ind=820uH
X1 port1 port2 Model1D PARAMS:
+ R1=35
+ R2=2.2
+ C= {Cpar}
+ K1=0.000001
+ K2=102
+ K3= {Ind}
+ K4=0.57
+ K5=0.963
+ L=0
+ Is=0
+ a=0
+ L_Z0=0
+ L_EL=0
+ L_F0=0E6
+ PkZ=151080.543
.ends LPS5050-824_imp

*======================================================================
* SPICE Model generated by Coilcraft
* Coilcraft Part Number : LPS5050-105
* Inductance = 1000uH
*======================================================================
* Model Parameters:
*   Valid Frequency Range = 0.1MHz-10MHz
*   Ambient Temperature = 25 degC
*   Inductor Frequency Model
*   Use model for Frequency Domain simulations
*======================================================================
.subckt LPS5050-105_freq port1 port2 PARAMS: Cpar=5.79pF Ind=1000uH
X1 port1 port2 Model1A PARAMS:
+ R1=52
+ R2=2.9
+ C= {Cpar}
+ K1=0.000001
+ K2=120
+ K3= {Ind}
+ K4=0.000001
+ K5=0.895
+ L=0
+ Is=0
+ a=0
+ L_Z0=0
+ L_EL=0
+ L_F0=0E6
+ PkZ=164933.641
.ends LPS5050-105_freq

*======================================================================
* SPICE Model generated by Coilcraft
* Coilcraft Part Number : LPS5050-105
* Inductance = 1000uH
*======================================================================
* Model Parameters:
*   Valid Frequency Range = 0.1MHz-10MHz
*   Ambient Temperature = 25 degC
*   Inductor Impedance Model
*   Use model for Time Domain simulations
*======================================================================
.subckt LPS5050-105_imp port1 port2 PARAMS: Cpar=5.79pF Ind=1000uH
X1 port1 port2 Model1D PARAMS:
+ R1=52
+ R2=2.9
+ C= {Cpar}
+ K1=0.000001
+ K2=120
+ K3= {Ind}
+ K4=0.000001
+ K5=0.895
+ L=0
+ Is=0
+ a=0
+ L_Z0=0
+ L_EL=0
+ L_F0=0E6
+ PkZ=164933.641
.ends LPS5050-105_imp

*======================================================================
* SPICE Model generated by Coilcraft
* Coilcraft Part Number : LPS5050-155
* Inductance = 1500uH
*======================================================================
* Model Parameters:
*   Valid Frequency Range = 0.1MHz-10MHz
*   Ambient Temperature = 25 degC
*   Inductor Frequency Model
*   Use model for Frequency Domain simulations
*======================================================================
.subckt LPS5050-155_freq port1 port2 PARAMS: Cpar=4.91pF Ind=1500uH
X1 port1 port2 Model1A PARAMS:
+ R1=33
+ R2=4.4
+ C= {Cpar}
+ K1=0.000001
+ K2=142
+ K3= {Ind}
+ K4=0.000001
+ K5=0.895
+ L=0
+ Is=0
+ a=0
+ L_Z0=0
+ L_EL=0
+ L_F0=0E6
+ PkZ=189424.705
.ends LPS5050-155_freq

*======================================================================
* SPICE Model generated by Coilcraft
* Coilcraft Part Number : LPS5050-155
* Inductance = 1500uH
*======================================================================
* Model Parameters:
*   Valid Frequency Range = 0.1MHz-10MHz
*   Ambient Temperature = 25 degC
*   Inductor Impedance Model
*   Use model for Time Domain simulations
*======================================================================
.subckt LPS5050-155_imp port1 port2 PARAMS: Cpar=4.91pF Ind=1500uH
X1 port1 port2 Model1D PARAMS:
+ R1=33
+ R2=4.4
+ C= {Cpar}
+ K1=0.000001
+ K2=142
+ K3= {Ind}
+ K4=0.000001
+ K5=0.895
+ L=0
+ Is=0
+ a=0
+ L_Z0=0
+ L_EL=0
+ L_F0=0E6
+ PkZ=189424.705
.ends LPS5050-155_imp

*======================================================================
* SPICE Model generated by Coilcraft
* Coilcraft Part Number : LPS5050-185
* Inductance = 1800uH
*======================================================================
* Model Parameters:
*   Valid Frequency Range = 0.1MHz-10MHz
*   Ambient Temperature = 25 degC
*   Inductor Frequency Model
*   Use model for Frequency Domain simulations
*======================================================================
.subckt LPS5050-185_freq port1 port2 PARAMS: Cpar=5.84pF Ind=1800uH
X1 port1 port2 Model1A PARAMS:
+ R1=33
+ R2=4.55
+ C= {Cpar}
+ K1=0.000001
+ K2=141
+ K3= {Ind}
+ K4=0.000001
+ K5=0.895
+ L=0
+ Is=0
+ a=0
+ L_Z0=0
+ L_EL=0
+ L_F0=0E6
+ PkZ=172435.357
.ends LPS5050-185_freq

*======================================================================
* SPICE Model generated by Coilcraft
* Coilcraft Part Number : LPS5050-185
* Inductance = 1800uH
*======================================================================
* Model Parameters:
*   Valid Frequency Range = 0.1MHz-10MHz
*   Ambient Temperature = 25 degC
*   Inductor Impedance Model
*   Use model for Time Domain simulations
*======================================================================
.subckt LPS5050-185_imp port1 port2 PARAMS: Cpar=5.84pF Ind=1800uH
X1 port1 port2 Model1D PARAMS:
+ R1=33
+ R2=4.55
+ C= {Cpar}
+ K1=0.000001
+ K2=141
+ K3= {Ind}
+ K4=0.000001
+ K5=0.895
+ L=0
+ Is=0
+ a=0
+ L_Z0=0
+ L_EL=0
+ L_F0=0E6
+ PkZ=172435.357
.ends LPS5050-185_imp

*======================================================================
* SPICE Model generated by Coilcraft
* Coilcraft Part Number : LPS5050-225
* Inductance = 2200uH
*======================================================================
* Model Parameters:
*   Valid Frequency Range = 0.1MHz-10MHz
*   Ambient Temperature = 25 degC
*   Inductor Frequency Model
*   Use model for Frequency Domain simulations
*======================================================================
.subckt LPS5050-225_freq port1 port2 PARAMS: Cpar=6.44pF Ind=2200uH
X1 port1 port2 Model1A PARAMS:
+ R1=55
+ R2=5.55
+ C= {Cpar}
+ K1=0.000001
+ K2=185
+ K3= {Ind}
+ K4=0.000001
+ K5=0.895
+ L=0
+ Is=0
+ a=0
+ L_Z0=0
+ L_EL=0
+ L_F0=0E6
+ PkZ=206804.627
.ends LPS5050-225_freq

*======================================================================
* SPICE Model generated by Coilcraft
* Coilcraft Part Number : LPS5050-225
* Inductance = 2200uH
*======================================================================
* Model Parameters:
*   Valid Frequency Range = 0.1MHz-10MHz
*   Ambient Temperature = 25 degC
*   Inductor Impedance Model
*   Use model for Time Domain simulations
*======================================================================
.subckt LPS5050-225_imp port1 port2 PARAMS: Cpar=6.44pF Ind=2200uH
X1 port1 port2 Model1D PARAMS:
+ R1=55
+ R2=5.55
+ C= {Cpar}
+ K1=0.000001
+ K2=185
+ K3= {Ind}
+ K4=0.000001
+ K5=0.895
+ L=0
+ Is=0
+ a=0
+ L_Z0=0
+ L_EL=0
+ L_F0=0E6
+ PkZ=206804.627
.ends LPS5050-225_imp

*======================================================================
* SPICE Model generated by Coilcraft
* Coilcraft Part Number : LPS5050-335
* Inductance = 3300uH
*======================================================================
* Model Parameters:
*   Valid Frequency Range = 0.1MHz-10MHz
*   Ambient Temperature = 25 degC
*   Inductor Frequency Model
*   Use model for Frequency Domain simulations
*======================================================================
.subckt LPS5050-335_freq port1 port2 PARAMS: Cpar=6.57pF Ind=3300uH
X1 port1 port2 Model1A PARAMS:
+ R1=42
+ R2=8.6
+ C= {Cpar}
+ K1=0.000001
+ K2=200
+ K3= {Ind}
+ K4=0.000001
+ K5=0.000001
+ L=0
+ Is=0
+ a=0
+ L_Z0=0
+ L_EL=0
+ L_F0=0E6
+ PkZ=204386.511
.ends LPS5050-335_freq

*======================================================================
* SPICE Model generated by Coilcraft
* Coilcraft Part Number : LPS5050-335
* Inductance = 3300uH
*======================================================================
* Model Parameters:
*   Valid Frequency Range = 0.1MHz-10MHz
*   Ambient Temperature = 25 degC
*   Inductor Impedance Model
*   Use model for Time Domain simulations
*======================================================================
.subckt LPS5050-335_imp port1 port2 PARAMS: Cpar=6.57pF Ind=3300uH
X1 port1 port2 Model1D PARAMS:
+ R1=42
+ R2=8.6
+ C= {Cpar}
+ K1=0.000001
+ K2=200
+ K3= {Ind}
+ K4=0.000001
+ K5=0.000001
+ L=0
+ Is=0
+ a=0
+ L_Z0=0
+ L_EL=0
+ L_F0=0E6
+ PkZ=204386.511
.ends LPS5050-335_imp

*======================================================================
* SPICE Model generated by Coilcraft
* Coilcraft Part Number : LPS5050-475
* Inductance = 4700uH
*======================================================================
* Model Parameters:
*   Valid Frequency Range = 0.1MHz-5MHz
*   Ambient Temperature = 25 degC
*   Inductor Frequency Model
*   Use model for Frequency Domain simulations
*======================================================================
.subckt LPS5050-475_freq port1 port2 PARAMS: Cpar=7.25pF Ind=4700uH
X1 port1 port2 Model1A PARAMS:
+ R1=42
+ R2=12.1
+ C= {Cpar}
+ K1=0.000001
+ K2=200
+ K3= {Ind}
+ K4=0.000001
+ K5=0.000001
+ L=0
+ Is=0
+ a=0
+ L_Z0=0
+ L_EL=0
+ L_F0=0E6
+ PkZ=183512.475
.ends LPS5050-475_freq

*======================================================================
* SPICE Model generated by Coilcraft
* Coilcraft Part Number : LPS5050-475
* Inductance = 4700uH
*======================================================================
* Model Parameters:
*   Valid Frequency Range = 0.1MHz-5MHz
*   Ambient Temperature = 25 degC
*   Inductor Impedance Model
*   Use model for Time Domain simulations
*======================================================================
.subckt LPS5050-475_imp port1 port2 PARAMS: Cpar=7.25pF Ind=4700uH
X1 port1 port2 Model1D PARAMS:
+ R1=42
+ R2=12.1
+ C= {Cpar}
+ K1=0.000001
+ K2=200
+ K3= {Ind}
+ K4=0.000001
+ K5=0.000001
+ L=0
+ Is=0
+ a=0
+ L_Z0=0
+ L_EL=0
+ L_F0=0E6
+ PkZ=183512.475
.ends LPS5050-475_imp

*======================================================================
* SPICE Model generated by Coilcraft
* Coilcraft Part Number : LPS5050-565
* Inductance = 5600uH
*======================================================================
* Model Parameters:
*   Valid Frequency Range = 0.1MHz-5MHz
*   Ambient Temperature = 25 degC
*   Inductor Frequency Model
*   Use model for Frequency Domain simulations
*======================================================================
.subckt LPS5050-565_freq port1 port2 PARAMS: Cpar=5.93pF Ind=5600uH
X1 port1 port2 Model1A PARAMS:
+ R1=45
+ R2=15.3
+ C= {Cpar}
+ K1=0.000001
+ K2=340
+ K3= {Ind}
+ K4=0.000001
+ K5=0.000001
+ L=0
+ Is=0
+ a=0
+ L_Z0=0
+ L_EL=0
+ L_F0=0E6
+ PkZ=313020.657
.ends LPS5050-565_freq

*======================================================================
* SPICE Model generated by Coilcraft
* Coilcraft Part Number : LPS5050-565
* Inductance = 5600uH
*======================================================================
* Model Parameters:
*   Valid Frequency Range = 0.1MHz-5MHz
*   Ambient Temperature = 25 degC
*   Inductor Impedance Model
*   Use model for Time Domain simulations
*======================================================================
.subckt LPS5050-565_imp port1 port2 PARAMS: Cpar=5.93pF Ind=5600uH
X1 port1 port2 Model1D PARAMS:
+ R1=45
+ R2=15.3
+ C= {Cpar}
+ K1=0.000001
+ K2=340
+ K3= {Ind}
+ K4=0.000001
+ K5=0.000001
+ L=0
+ Is=0
+ a=0
+ L_Z0=0
+ L_EL=0
+ L_F0=0E6
+ PkZ=313020.657
.ends LPS5050-565_imp

*======================================================================
* SPICE Model generated by Coilcraft
* Coilcraft Part Number : LPS5050-685
* Inductance = 6800uH
*======================================================================
* Model Parameters:
*   Valid Frequency Range = 0.1MHz-5MHz
*   Ambient Temperature = 25 degC
*   Inductor Frequency Model
*   Use model for Frequency Domain simulations
*======================================================================
.subckt LPS5050-685_freq port1 port2 PARAMS: Cpar=8.67pF Ind=6800uH
X1 port1 port2 Model1A PARAMS:
+ R1=98
+ R2=19.2
+ C= {Cpar}
+ K1=0.000001
+ K2=450
+ K3= {Ind}
+ K4=0.000001
+ K5=0.000001
+ L=0
+ Is=0
+ a=0
+ L_Z0=0
+ L_EL=0
+ L_F0=0E6
+ PkZ=348482.65
.ends LPS5050-685_freq

*======================================================================
* SPICE Model generated by Coilcraft
* Coilcraft Part Number : LPS5050-685
* Inductance = 6800uH
*======================================================================
* Model Parameters:
*   Valid Frequency Range = 0.1MHz-5MHz
*   Ambient Temperature = 25 degC
*   Inductor Impedance Model
*   Use model for Time Domain simulations
*======================================================================
.subckt LPS5050-685_imp port1 port2 PARAMS: Cpar=8.67pF Ind=6800uH
X1 port1 port2 Model1D PARAMS:
+ R1=98
+ R2=19.2
+ C= {Cpar}
+ K1=0.000001
+ K2=450
+ K3= {Ind}
+ K4=0.000001
+ K5=0.000001
+ L=0
+ Is=0
+ a=0
+ L_Z0=0
+ L_EL=0
+ L_F0=0E6
+ PkZ=348482.65
.ends LPS5050-685_imp

*======================================================================
* SPICE Model generated by Coilcraft
* Coilcraft Part Number : LPS5050-825
* Inductance = 8200uH
*======================================================================
* Model Parameters:
*   Valid Frequency Range = 0.1MHz-2MHz
*   Ambient Temperature = 25 degC
*   Inductor Frequency Model
*   Use model for Frequency Domain simulations
*======================================================================
.subckt LPS5050-825_freq port1 port2 PARAMS: Cpar=8.38pF Ind=8200uH
X1 port1 port2 Model1A PARAMS:
+ R1=78
+ R2=21.5
+ C= {Cpar}
+ K1=0.0458
+ K2=419
+ K3= {Ind}
+ K4=0.000001
+ K5=0.000001
+ L=0
+ Is=0
+ a=0
+ L_Z0=0
+ L_EL=0
+ L_F0=0E6
+ PkZ=314572.427
.ends LPS5050-825_freq

*======================================================================
* SPICE Model generated by Coilcraft
* Coilcraft Part Number : LPS5050-825
* Inductance = 8200uH
*======================================================================
* Model Parameters:
*   Valid Frequency Range = 0.1MHz-2MHz
*   Ambient Temperature = 25 degC
*   Inductor Impedance Model
*   Use model for Time Domain simulations
*======================================================================
.subckt LPS5050-825_imp port1 port2 PARAMS: Cpar=8.38pF Ind=8200uH
X1 port1 port2 Model1D PARAMS:
+ R1=78
+ R2=21.5
+ C= {Cpar}
+ K1=0.0458
+ K2=419
+ K3= {Ind}
+ K4=0.000001
+ K5=0.000001
+ L=0
+ Is=0
+ a=0
+ L_Z0=0
+ L_EL=0
+ L_F0=0E6
+ PkZ=314572.427
.ends LPS5050-825_imp

*======================================================================
* SPICE Model generated by Coilcraft
* Coilcraft Part Number : LPS5050-106
* Inductance = 10000uH
*======================================================================
* Model Parameters:
*   Valid Frequency Range = 0.1MHz-2MHz
*   Ambient Temperature = 25 degC
*   Inductor Frequency Model
*   Use model for Frequency Domain simulations
*======================================================================
.subckt LPS5050-106_freq port1 port2 PARAMS: Cpar=9.44pF Ind=10000uH
X1 port1 port2 Model1A PARAMS:
+ R1=78
+ R2=23.3
+ C= {Cpar}
+ K1=0.0454
+ K2=451
+ K3= {Ind}
+ K4=0.000001
+ K5=0.000001
+ L=0
+ Is=0
+ a=0
+ L_Z0=0
+ L_EL=0
+ L_F0=0E6
+ PkZ=313972.687
.ends LPS5050-106_freq

*======================================================================
* SPICE Model generated by Coilcraft
* Coilcraft Part Number : LPS5050-106
* Inductance = 10000uH
*======================================================================
* Model Parameters:
*   Valid Frequency Range = 0.1MHz-2MHz
*   Ambient Temperature = 25 degC
*   Inductor Impedance Model
*   Use model for Time Domain simulations
*======================================================================
.subckt LPS5050-106_imp port1 port2 PARAMS: Cpar=9.44pF Ind=10000uH
X1 port1 port2 Model1D PARAMS:
+ R1=78
+ R2=23.3
+ C= {Cpar}
+ K1=0.0454
+ K2=451
+ K3= {Ind}
+ K4=0.000001
+ K5=0.000001
+ L=0
+ Is=0
+ a=0
+ L_Z0=0
+ L_EL=0
+ L_F0=0E6
+ PkZ=313972.687
.ends LPS5050-106_imp

*======================================================================
* SPICE Model generated by Coilcraft
* Coilcraft Impedance Inductor Model
*======================================================================
* Model Parameters:
*   Valid Frequency Range Varies by Inductor
*   Ambient Temperature = 25 degC
*   Time Domain Inductor Impedance Model
*======================================================================
.subckt Model1D Lin Lout PARAMS:
+ R1=1
+ R2=1
+ C=1
+ K3=1
+ PkZ=1
R2 Lin N001 {R2}
R3 N001 Lout {PkZ}
C1 N001 N002 {C}
R1 N002 Lout {R1}
L1 N001 Lout {K3}
.ends Model1D

*======================================================================
* SPICE Model generated by Coilcraft
* Coilcraft Power Inductor Model
*======================================================================
* Model Parameters:
*   Valid Frequency Range Varies by Inductor
*   Ambient Temperature = 25 degC
*   DC Bias Current = 0 A
*   Frequency Dependent Inductor Model
*======================================================================
.subckt Model1A Lin Lout PARAMS:
+ R1=1
+ R2=1
+ C=1
+ K1=1
+ K2=1
+ K3=1
+ K4=1
+ K5=1
R2 N001 Lin {R2}
R1 Lout N002 {R1}
C1 N002 N001 {C}
G_Rvar2 N001 Lout LAPLACE { V(N001, Lout) } {1/K2/(-S*S/4/PI^2)^0.25}
G_Rvar1 N001 N003 LAPLACE { V(N001, N003) } {1/K1/(-S*S/4/PI^2)^0.25}
G_Lvar N003 Lout  LAPLACE { V(N003, Lout) } {1/(S*1e-6*({K3*1e6}-({K4}*LOG({K5}*(sqrt(-S*S)/(2*pi))))))}
*This large resistance to ground has been added to prevent a floating node error
R3 N003 0 100Meg
.ends Model1A


.subckt Coilcraft_Inductor Lin Lout
R1 Lout Lin 100Meg
.ends Coilcraft_Inductor
