*======================================================================
* SPICE Model generated by Coilcraft
* Coilcraft Part Number : MSS1210-103
* Inductance = 10uH
*======================================================================
* Model Parameters:
*   Valid Frequency Range = 0.1MHz-40MHz
*   Ambient Temperature = 25 degC
*   Inductor Frequency Model
*   Use model for Frequency Domain simulations
*======================================================================
.subckt MSS1210-103_freq port1 port2 PARAMS: Cpar=14pF Ind=10uH
X1 port1 port2 Model1A PARAMS:
+ R1=9.5
+ R2=0.014
+ C= {Cpar}
+ K1=0.00026
+ K2=3
+ K3= {Ind}
+ K4=0.2
+ K5=0.0000099
+ L=0
+ Is=0
+ a=0
+ L_Z0=0
+ L_EL=0
+ L_F0=0E6
+ PkZ=9537.31372
.ends MSS1210-103_freq

*======================================================================
* SPICE Model generated by Coilcraft
* Coilcraft Part Number : MSS1210-103
* Inductance = 10uH
*======================================================================
* Model Parameters:
*   Valid Frequency Range = 0.1MHz-40MHz
*   Ambient Temperature = 25 degC
*   Inductor Impedance Model
*   Use model for Time Domain simulations
*======================================================================
.subckt MSS1210-103_imp port1 port2 PARAMS: Cpar=12.63pF Ind=10uH
X1 port1 port2 Model1D PARAMS:
+ R1=9.5
+ R2=0.014
+ C= {Cpar}
+ K1=0.00026
+ K2=3
+ K3= {Ind}
+ K4=0.2
+ K5=0.0000099
+ L=0
+ Is=0
+ a=0
+ L_Z0=0
+ L_EL=0
+ L_F0=0E6
+ PkZ=9537.31372
.ends MSS1210-103_imp

*======================================================================
* SPICE Model generated by Coilcraft
* Coilcraft Part Number : MSS1210-153
* Inductance = 15uH
*======================================================================
* Model Parameters:
*   Valid Frequency Range = 0.1MHz-30MHz
*   Ambient Temperature = 25 degC
*   Inductor Frequency Model
*   Use model for Frequency Domain simulations
*======================================================================
.subckt MSS1210-153_freq port1 port2 PARAMS: Cpar=10.5pF Ind=15uH
X1 port1 port2 Model1A PARAMS:
+ R1=7.5
+ R2=0.019
+ C= {Cpar}
+ K1=0.00026
+ K2=5
+ K3= {Ind}
+ K4=0.19
+ K5=0.0000099
+ L=0
+ Is=0
+ a=0
+ L_Z0=0
+ L_EL=0
+ L_F0=0E6
+ PkZ=16239.813
.ends MSS1210-153_freq

*======================================================================
* SPICE Model generated by Coilcraft
* Coilcraft Part Number : MSS1210-153
* Inductance = 15uH
*======================================================================
* Model Parameters:
*   Valid Frequency Range = 0.1MHz-30MHz
*   Ambient Temperature = 25 degC
*   Inductor Impedance Model
*   Use model for Time Domain simulations
*======================================================================
.subckt MSS1210-153_imp port1 port2 PARAMS: Cpar=9.857pF Ind=15uH
X1 port1 port2 Model1D PARAMS:
+ R1=7.5
+ R2=0.019
+ C= {Cpar}
+ K1=0.00026
+ K2=5
+ K3= {Ind}
+ K4=0.19
+ K5=0.0000099
+ L=0
+ Is=0
+ a=0
+ L_Z0=0
+ L_EL=0
+ L_F0=0E6
+ PkZ=16239.813
.ends MSS1210-153_imp

*======================================================================
* SPICE Model generated by Coilcraft
* Coilcraft Part Number : MSS1210-223
* Inductance = 22uH
*======================================================================
* Model Parameters:
*   Valid Frequency Range = 0.1MHz-30MHz
*   Ambient Temperature = 25 degC
*   Inductor Frequency Model
*   Use model for Frequency Domain simulations
*======================================================================
.subckt MSS1210-223_freq port1 port2 PARAMS: Cpar=11pF Ind=22uH
X1 port1 port2 Model1A PARAMS:
+ R1=7.5
+ R2=0.026
+ C= {Cpar}
+ K1=0.00026
+ K2=8.2
+ K3= {Ind}
+ K4=0.19
+ K5=0.0000099
+ L=0
+ Is=0
+ a=0
+ L_Z0=0
+ L_EL=0
+ L_F0=0E6
+ PkZ=23761.7965
.ends MSS1210-223_freq

*======================================================================
* SPICE Model generated by Coilcraft
* Coilcraft Part Number : MSS1210-223
* Inductance = 22uH
*======================================================================
* Model Parameters:
*   Valid Frequency Range = 0.1MHz-30MHz
*   Ambient Temperature = 25 degC
*   Inductor Impedance Model
*   Use model for Time Domain simulations
*======================================================================
.subckt MSS1210-223_imp port1 port2 PARAMS: Cpar=10.561pF Ind=22uH
X1 port1 port2 Model1D PARAMS:
+ R1=7.5
+ R2=0.026
+ C= {Cpar}
+ K1=0.00026
+ K2=8.2
+ K3= {Ind}
+ K4=0.19
+ K5=0.0000099
+ L=0
+ Is=0
+ a=0
+ L_Z0=0
+ L_EL=0
+ L_F0=0E6
+ PkZ=23761.7965
.ends MSS1210-223_imp

*======================================================================
* SPICE Model generated by Coilcraft
* Coilcraft Part Number : MSS1210-333
* Inductance = 33uH
*======================================================================
* Model Parameters:
*   Valid Frequency Range = 0.1MHz-20MHz
*   Ambient Temperature = 25 degC
*   Inductor Frequency Model
*   Use model for Frequency Domain simulations
*======================================================================
.subckt MSS1210-333_freq port1 port2 PARAMS: Cpar=13.5pF Ind=33uH
X1 port1 port2 Model1A PARAMS:
+ R1=6
+ R2=0.033
+ C= {Cpar}
+ K1=0.00026
+ K2=14
+ K3= {Ind}
+ K4=0.19
+ K5=0.0000099
+ L=0
+ Is=0
+ a=0
+ L_Z0=0
+ L_EL=0
+ L_F0=0E6
+ PkZ=34882.7259
.ends MSS1210-333_freq

*======================================================================
* SPICE Model generated by Coilcraft
* Coilcraft Part Number : MSS1210-333
* Inductance = 33uH
*======================================================================
* Model Parameters:
*   Valid Frequency Range = 0.1MHz-20MHz
*   Ambient Temperature = 25 degC
*   Inductor Impedance Model
*   Use model for Time Domain simulations
*======================================================================
.subckt MSS1210-333_imp port1 port2 PARAMS: Cpar=13.165pF Ind=33uH
X1 port1 port2 Model1D PARAMS:
+ R1=6
+ R2=0.033
+ C= {Cpar}
+ K1=0.00026
+ K2=14
+ K3= {Ind}
+ K4=0.19
+ K5=0.0000099
+ L=0
+ Is=0
+ a=0
+ L_Z0=0
+ L_EL=0
+ L_F0=0E6
+ PkZ=34882.7259
.ends MSS1210-333_imp

*======================================================================
* SPICE Model generated by Coilcraft
* Coilcraft Part Number : MSS1210-473
* Inductance = 47uH
*======================================================================
* Model Parameters:
*   Valid Frequency Range = 0.1MHz-20MHz
*   Ambient Temperature = 25 degC
*   Inductor Frequency Model
*   Use model for Frequency Domain simulations
*======================================================================
.subckt MSS1210-473_freq port1 port2 PARAMS: Cpar=14.5pF Ind=47uH
X1 port1 port2 Model1A PARAMS:
+ R1=5
+ R2=0.048
+ C= {Cpar}
+ K1=0.00026
+ K2=17
+ K3= {Ind}
+ K4=0.19
+ K5=0.0000099
+ L=0
+ Is=0
+ a=0
+ L_Z0=0
+ L_EL=0
+ L_F0=0E6
+ PkZ=39223.3246
.ends MSS1210-473_freq

*======================================================================
* SPICE Model generated by Coilcraft
* Coilcraft Part Number : MSS1210-473
* Inductance = 47uH
*======================================================================
* Model Parameters:
*   Valid Frequency Range = 0.1MHz-20MHz
*   Ambient Temperature = 25 degC
*   Inductor Impedance Model
*   Use model for Time Domain simulations
*======================================================================
.subckt MSS1210-473_imp port1 port2 PARAMS: Cpar=14.26pF Ind=47uH
X1 port1 port2 Model1D PARAMS:
+ R1=5
+ R2=0.048
+ C= {Cpar}
+ K1=0.00026
+ K2=17
+ K3= {Ind}
+ K4=0.19
+ K5=0.0000099
+ L=0
+ Is=0
+ a=0
+ L_Z0=0
+ L_EL=0
+ L_F0=0E6
+ PkZ=39223.3246
.ends MSS1210-473_imp

*======================================================================
* SPICE Model generated by Coilcraft
* Coilcraft Part Number : MSS1210-683
* Inductance = 68uH
*======================================================================
* Model Parameters:
*   Valid Frequency Range = 0.1MHz-10MHz
*   Ambient Temperature = 25 degC
*   Inductor Frequency Model
*   Use model for Frequency Domain simulations
*======================================================================
.subckt MSS1210-683_freq port1 port2 PARAMS: Cpar=16pF Ind=68uH
X1 port1 port2 Model1A PARAMS:
+ R1=5
+ R2=0.068
+ C= {Cpar}
+ K1=0.00026
+ K2=26
+ K3= {Ind}
+ K4=0.19
+ K5=0.0000099
+ L=0
+ Is=0
+ a=0
+ L_Z0=0
+ L_EL=0
+ L_F0=0E6
+ PkZ=53226.7851
.ends MSS1210-683_freq

*======================================================================
* SPICE Model generated by Coilcraft
* Coilcraft Part Number : MSS1210-683
* Inductance = 68uH
*======================================================================
* Model Parameters:
*   Valid Frequency Range = 0.1MHz-10MHz
*   Ambient Temperature = 25 degC
*   Inductor Impedance Model
*   Use model for Time Domain simulations
*======================================================================
.subckt MSS1210-683_imp port1 port2 PARAMS: Cpar=15.827pF Ind=68uH
X1 port1 port2 Model1D PARAMS:
+ R1=5
+ R2=0.068
+ C= {Cpar}
+ K1=0.00026
+ K2=26
+ K3= {Ind}
+ K4=0.19
+ K5=0.0000099
+ L=0
+ Is=0
+ a=0
+ L_Z0=0
+ L_EL=0
+ L_F0=0E6
+ PkZ=53226.7851
.ends MSS1210-683_imp

*======================================================================
* SPICE Model generated by Coilcraft
* Coilcraft Part Number : MSS1210-104
* Inductance = 100uH
*======================================================================
* Model Parameters:
*   Valid Frequency Range = 0.1MHz-10MHz
*   Ambient Temperature = 25 degC
*   Inductor Frequency Model
*   Use model for Frequency Domain simulations
*======================================================================
.subckt MSS1210-104_freq port1 port2 PARAMS: Cpar=17.6pF Ind=100uH
X1 port1 port2 Model1A PARAMS:
+ R1=5
+ R2=0.106
+ C= {Cpar}
+ K1=0.00026
+ K2=38
+ K3= {Ind}
+ K4=0.15
+ K5=0.0000099
+ L=0
+ Is=0
+ a=0
+ L_Z0=0
+ L_EL=0
+ L_F0=0E6
+ PkZ=69122.7146
.ends MSS1210-104_freq

*======================================================================
* SPICE Model generated by Coilcraft
* Coilcraft Part Number : MSS1210-104
* Inductance = 100uH
*======================================================================
* Model Parameters:
*   Valid Frequency Range = 0.1MHz-10MHz
*   Ambient Temperature = 25 degC
*   Inductor Impedance Model
*   Use model for Time Domain simulations
*======================================================================
.subckt MSS1210-104_imp port1 port2 PARAMS: Cpar=17.504pF Ind=100uH
X1 port1 port2 Model1D PARAMS:
+ R1=5
+ R2=0.106
+ C= {Cpar}
+ K1=0.00026
+ K2=38
+ K3= {Ind}
+ K4=0.15
+ K5=0.0000099
+ L=0
+ Is=0
+ a=0
+ L_Z0=0
+ L_EL=0
+ L_F0=0E6
+ PkZ=69122.7146
.ends MSS1210-104_imp

*======================================================================
* SPICE Model generated by Coilcraft
* Coilcraft Part Number : MSS1210-124
* Inductance = 120uH
*======================================================================
* Model Parameters:
*   Valid Frequency Range = 0.1MHz-10MHz
*   Ambient Temperature = 25 degC
*   Inductor Frequency Model
*   Use model for Frequency Domain simulations
*======================================================================
.subckt MSS1210-124_freq port1 port2 PARAMS: Cpar=16pF Ind=120uH
X1 port1 port2 Model1A PARAMS:
+ R1=4
+ R2=0.115
+ C= {Cpar}
+ K1=0.00026
+ K2=40
+ K3= {Ind}
+ K4=0.15
+ K5=0.0000099
+ L=0
+ Is=0
+ a=0
+ L_Z0=0
+ L_EL=0
+ L_F0=0E6
+ PkZ=72965.7141
.ends MSS1210-124_freq

*======================================================================
* SPICE Model generated by Coilcraft
* Coilcraft Part Number : MSS1210-124
* Inductance = 120uH
*======================================================================
* Model Parameters:
*   Valid Frequency Range = 0.1MHz-10MHz
*   Ambient Temperature = 25 degC
*   Inductor Impedance Model
*   Use model for Time Domain simulations
*======================================================================
.subckt MSS1210-124_imp port1 port2 PARAMS: Cpar=15.928pF Ind=120uH
X1 port1 port2 Model1D PARAMS:
+ R1=4
+ R2=0.115
+ C= {Cpar}
+ K1=0.00026
+ K2=40
+ K3= {Ind}
+ K4=0.15
+ K5=0.0000099
+ L=0
+ Is=0
+ a=0
+ L_Z0=0
+ L_EL=0
+ L_F0=0E6
+ PkZ=72965.7141
.ends MSS1210-124_imp

*======================================================================
* SPICE Model generated by Coilcraft
* Coilcraft Part Number : MSS1210-154
* Inductance = 150uH
*======================================================================
* Model Parameters:
*   Valid Frequency Range = 0.1MHz-10MHz
*   Ambient Temperature = 25 degC
*   Inductor Frequency Model
*   Use model for Frequency Domain simulations
*======================================================================
.subckt MSS1210-154_freq port1 port2 PARAMS: Cpar=20.5pF Ind=150uH
X1 port1 port2 Model1A PARAMS:
+ R1=4
+ R2=0.157
+ C= {Cpar}
+ K1=0.00026
+ K2=44
+ K3= {Ind}
+ K4=0.15
+ K5=0.0000099
+ L=0
+ Is=0
+ a=0
+ L_Z0=0
+ L_EL=0
+ L_F0=0E6
+ PkZ=71362.6846
.ends MSS1210-154_freq

*======================================================================
* SPICE Model generated by Coilcraft
* Coilcraft Part Number : MSS1210-154
* Inductance = 150uH
*======================================================================
* Model Parameters:
*   Valid Frequency Range = 0.1MHz-10MHz
*   Ambient Temperature = 25 degC
*   Inductor Impedance Model
*   Use model for Time Domain simulations
*======================================================================
.subckt MSS1210-154_imp port1 port2 PARAMS: Cpar=20.431pF Ind=150uH
X1 port1 port2 Model1D PARAMS:
+ R1=4
+ R2=0.157
+ C= {Cpar}
+ K1=0.00026
+ K2=44
+ K3= {Ind}
+ K4=0.15
+ K5=0.0000099
+ L=0
+ Is=0
+ a=0
+ L_Z0=0
+ L_EL=0
+ L_F0=0E6
+ PkZ=71362.6846
.ends MSS1210-154_imp

*======================================================================
* SPICE Model generated by Coilcraft
* Coilcraft Part Number : MSS1210-184
* Inductance = 180uH
*======================================================================
* Model Parameters:
*   Valid Frequency Range = 0.1MHz-10MHz
*   Ambient Temperature = 25 degC
*   Inductor Frequency Model
*   Use model for Frequency Domain simulations
*======================================================================
.subckt MSS1210-184_freq port1 port2 PARAMS: Cpar=18.6pF Ind=180uH
X1 port1 port2 Model1A PARAMS:
+ R1=4
+ R2=0.173
+ C= {Cpar}
+ K1=0.00026
+ K2=48.5
+ K3= {Ind}
+ K4=0.16
+ K5=0.0000099
+ L=0
+ Is=0
+ a=0
+ L_Z0=0
+ L_EL=0
+ L_F0=0E6
+ PkZ=77626.451
.ends MSS1210-184_freq

*======================================================================
* SPICE Model generated by Coilcraft
* Coilcraft Part Number : MSS1210-184
* Inductance = 180uH
*======================================================================
* Model Parameters:
*   Valid Frequency Range = 0.1MHz-10MHz
*   Ambient Temperature = 25 degC
*   Inductor Impedance Model
*   Use model for Time Domain simulations
*======================================================================
.subckt MSS1210-184_imp port1 port2 PARAMS: Cpar=18.545pF Ind=180uH
X1 port1 port2 Model1D PARAMS:
+ R1=4
+ R2=0.173
+ C= {Cpar}
+ K1=0.00026
+ K2=48.5
+ K3= {Ind}
+ K4=0.16
+ K5=0.0000099
+ L=0
+ Is=0
+ a=0
+ L_Z0=0
+ L_EL=0
+ L_F0=0E6
+ PkZ=77626.451
.ends MSS1210-184_imp

*======================================================================
* SPICE Model generated by Coilcraft
* Coilcraft Part Number : MSS1210-224
* Inductance = 220uH
*======================================================================
* Model Parameters:
*   Valid Frequency Range = 0.1MHz-8MHz
*   Ambient Temperature = 25 degC
*   Inductor Frequency Model
*   Use model for Frequency Domain simulations
*======================================================================
.subckt MSS1210-224_freq port1 port2 PARAMS: Cpar=17.5pF Ind=220uH
X1 port1 port2 Model1A PARAMS:
+ R1=4
+ R2=0.191
+ C= {Cpar}
+ K1=0.00026
+ K2=56
+ K3= {Ind}
+ K4=0.16
+ K5=0.0000099
+ L=0
+ Is=0
+ a=0
+ L_Z0=0
+ L_EL=0
+ L_F0=0E6
+ PkZ=86991.5841
.ends MSS1210-224_freq

*======================================================================
* SPICE Model generated by Coilcraft
* Coilcraft Part Number : MSS1210-224
* Inductance = 220uH
*======================================================================
* Model Parameters:
*   Valid Frequency Range = 0.1MHz-8MHz
*   Ambient Temperature = 25 degC
*   Inductor Impedance Model
*   Use model for Time Domain simulations
*======================================================================
.subckt MSS1210-224_imp port1 port2 PARAMS: Cpar=17.459pF Ind=220uH
X1 port1 port2 Model1D PARAMS:
+ R1=4
+ R2=0.191
+ C= {Cpar}
+ K1=0.00026
+ K2=56
+ K3= {Ind}
+ K4=0.16
+ K5=0.0000099
+ L=0
+ Is=0
+ a=0
+ L_Z0=0
+ L_EL=0
+ L_F0=0E6
+ PkZ=86991.5841
.ends MSS1210-224_imp

*======================================================================
* SPICE Model generated by Coilcraft
* Coilcraft Part Number : MSS1210-334
* Inductance = 330uH
*======================================================================
* Model Parameters:
*   Valid Frequency Range = 0.1MHz-8MHz
*   Ambient Temperature = 25 degC
*   Inductor Frequency Model
*   Use model for Frequency Domain simulations
*======================================================================
.subckt MSS1210-334_freq port1 port2 PARAMS: Cpar=22.5pF Ind=330uH
X1 port1 port2 Model1A PARAMS:
+ R1=3
+ R2=0.289
+ C= {Cpar}
+ K1=0.00026
+ K2=58.5
+ K3= {Ind}
+ K4=0.16
+ K5=0.0000099
+ L=0
+ Is=0
+ a=0
+ L_Z0=0
+ L_EL=0
+ L_F0=0E6
+ PkZ=78110.4172
.ends MSS1210-334_freq

*======================================================================
* SPICE Model generated by Coilcraft
* Coilcraft Part Number : MSS1210-334
* Inductance = 330uH
*======================================================================
* Model Parameters:
*   Valid Frequency Range = 0.1MHz-8MHz
*   Ambient Temperature = 25 degC
*   Inductor Impedance Model
*   Use model for Time Domain simulations
*======================================================================
.subckt MSS1210-334_imp port1 port2 PARAMS: Cpar=22.468pF Ind=330uH
X1 port1 port2 Model1D PARAMS:
+ R1=3
+ R2=0.289
+ C= {Cpar}
+ K1=0.00026
+ K2=58.5
+ K3= {Ind}
+ K4=0.16
+ K5=0.0000099
+ L=0
+ Is=0
+ a=0
+ L_Z0=0
+ L_EL=0
+ L_F0=0E6
+ PkZ=78110.4172
.ends MSS1210-334_imp

*======================================================================
* SPICE Model generated by Coilcraft
* Coilcraft Part Number : MSS1210-474
* Inductance = 470uH
*======================================================================
* Model Parameters:
*   Valid Frequency Range = 0.1MHz-8MHz
*   Ambient Temperature = 25 degC
*   Inductor Frequency Model
*   Use model for Frequency Domain simulations
*======================================================================
.subckt MSS1210-474_freq port1 port2 PARAMS: Cpar=20pF Ind=470uH
X1 port1 port2 Model1A PARAMS:
+ R1=3
+ R2=0.434
+ C= {Cpar}
+ K1=0.00026
+ K2=90
+ K3= {Ind}
+ K4=0.16
+ K5=0.0000099
+ L=0
+ Is=0
+ a=0
+ L_Z0=0
+ L_EL=0
+ L_F0=0E6
+ PkZ=113480.55
.ends MSS1210-474_freq

*======================================================================
* SPICE Model generated by Coilcraft
* Coilcraft Part Number : MSS1210-474
* Inductance = 470uH
*======================================================================
* Model Parameters:
*   Valid Frequency Range = 0.1MHz-8MHz
*   Ambient Temperature = 25 degC
*   Inductor Impedance Model
*   Use model for Time Domain simulations
*======================================================================
.subckt MSS1210-474_imp port1 port2 PARAMS: Cpar=19.981pF Ind=470uH
X1 port1 port2 Model1D PARAMS:
+ R1=3
+ R2=0.434
+ C= {Cpar}
+ K1=0.00026
+ K2=90
+ K3= {Ind}
+ K4=0.16
+ K5=0.0000099
+ L=0
+ Is=0
+ a=0
+ L_Z0=0
+ L_EL=0
+ L_F0=0E6
+ PkZ=113480.55
.ends MSS1210-474_imp

*======================================================================
* SPICE Model generated by Coilcraft
* Coilcraft Part Number : MSS1210-684
* Inductance = 680uH
*======================================================================
* Model Parameters:
*   Valid Frequency Range = 0.1MHz-8MHz
*   Ambient Temperature = 25 degC
*   Inductor Frequency Model
*   Use model for Frequency Domain simulations
*======================================================================
.subckt MSS1210-684_freq port1 port2 PARAMS: Cpar=17.8pF Ind=680uH
X1 port1 port2 Model1A PARAMS:
+ R1=2.5
+ R2=0.536
+ C= {Cpar}
+ K1=0.00026
+ K2=89
+ K3= {Ind}
+ K4=0.16
+ K5=0.0000099
+ L=0
+ Is=0
+ a=0
+ L_Z0=0
+ L_EL=0
+ L_F0=0E6
+ PkZ=106224.793
.ends MSS1210-684_freq

*======================================================================
* SPICE Model generated by Coilcraft
* Coilcraft Part Number : MSS1210-684
* Inductance = 680uH
*======================================================================
* Model Parameters:
*   Valid Frequency Range = 0.1MHz-8MHz
*   Ambient Temperature = 25 degC
*   Inductor Impedance Model
*   Use model for Time Domain simulations
*======================================================================
.subckt MSS1210-684_imp port1 port2 PARAMS: Cpar=17.789pF Ind=680uH
X1 port1 port2 Model1D PARAMS:
+ R1=2.5
+ R2=0.536
+ C= {Cpar}
+ K1=0.00026
+ K2=89
+ K3= {Ind}
+ K4=0.16
+ K5=0.0000099
+ L=0
+ Is=0
+ a=0
+ L_Z0=0
+ L_EL=0
+ L_F0=0E6
+ PkZ=106224.793
.ends MSS1210-684_imp

*======================================================================
* SPICE Model generated by Coilcraft
* Coilcraft Part Number : MSS1210-105
* Inductance = 1000uH
*======================================================================
* Model Parameters:
*   Valid Frequency Range = 0.1MHz-8MHz
*   Ambient Temperature = 25 degC
*   Inductor Frequency Model
*   Use model for Frequency Domain simulations
*======================================================================
.subckt MSS1210-105_freq port1 port2 PARAMS: Cpar=20pF Ind=1000uH
X1 port1 port2 Model1A PARAMS:
+ R1=4
+ R2=0.816
+ C= {Cpar}
+ K1=0.00026
+ K2=84
+ K3= {Ind}
+ K4=0.16
+ K5=0.0000099
+ L=0
+ Is=0
+ a=0
+ L_Z0=0
+ L_EL=0
+ L_F0=0E6
+ PkZ=88446.197
.ends MSS1210-105_freq

*======================================================================
* SPICE Model generated by Coilcraft
* Coilcraft Part Number : MSS1210-105
* Inductance = 1000uH
*======================================================================
* Model Parameters:
*   Valid Frequency Range = 0.1MHz-8MHz
*   Ambient Temperature = 25 degC
*   Inductor Impedance Model
*   Use model for Time Domain simulations
*======================================================================
.subckt MSS1210-105_imp port1 port2 PARAMS: Cpar=19.992pF Ind=1000uH
X1 port1 port2 Model1D PARAMS:
+ R1=4
+ R2=0.816
+ C= {Cpar}
+ K1=0.00026
+ K2=84
+ K3= {Ind}
+ K4=0.16
+ K5=0.0000099
+ L=0
+ Is=0
+ a=0
+ L_Z0=0
+ L_EL=0
+ L_F0=0E6
+ PkZ=88446.197
.ends MSS1210-105_imp

*======================================================================
* SPICE Model generated by Coilcraft
* Coilcraft Part Number : MSS1210-125
* Inductance = 1200uH
*======================================================================
* Model Parameters:
*   Valid Frequency Range = 0.1MHz-5MHz
*   Ambient Temperature = 25 degC
*   Inductor Frequency Model
*   Use model for Frequency Domain simulations
*======================================================================
.subckt MSS1210-125_freq port1 port2 PARAMS: Cpar=19pF Ind=1200uH
X1 port1 port2 Model1A PARAMS:
+ R1=5
+ R2=1.07
+ C= {Cpar}
+ K1=0.00026
+ K2=130
+ K3= {Ind}
+ K4=0.16
+ K5=0.0000099
+ L=0
+ Is=0
+ a=0
+ L_Z0=0
+ L_EL=0
+ L_F0=0E6
+ PkZ=132007.391
.ends MSS1210-125_freq

*======================================================================
* SPICE Model generated by Coilcraft
* Coilcraft Part Number : MSS1210-125
* Inductance = 1200uH
*======================================================================
* Model Parameters:
*   Valid Frequency Range = 0.1MHz-5MHz
*   Ambient Temperature = 25 degC
*   Inductor Impedance Model
*   Use model for Time Domain simulations
*======================================================================
.subckt MSS1210-125_imp port1 port2 PARAMS: Cpar=18.994pF Ind=1200uH
X1 port1 port2 Model1D PARAMS:
+ R1=5
+ R2=1.07
+ C= {Cpar}
+ K1=0.00026
+ K2=130
+ K3= {Ind}
+ K4=0.16
+ K5=0.0000099
+ L=0
+ Is=0
+ a=0
+ L_Z0=0
+ L_EL=0
+ L_F0=0E6
+ PkZ=132007.391
.ends MSS1210-125_imp

*======================================================================
* SPICE Model generated by Coilcraft
* Coilcraft Part Number : MSS1210-155
* Inductance = 1500uH
*======================================================================
* Model Parameters:
*   Valid Frequency Range = 0.1MHz-5MHz
*   Ambient Temperature = 25 degC
*   Inductor Frequency Model
*   Use model for Frequency Domain simulations
*======================================================================
.subckt MSS1210-155_freq port1 port2 PARAMS: Cpar=20pF Ind=1500uH
X1 port1 port2 Model1A PARAMS:
+ R1=5
+ R2=1.23
+ C= {Cpar}
+ K1=0.00026
+ K2=135
+ K3= {Ind}
+ K4=0.16
+ K5=0.0000099
+ L=0
+ Is=0
+ a=0
+ L_Z0=0
+ L_EL=0
+ L_F0=0E6
+ PkZ=128255.583
.ends MSS1210-155_freq

*======================================================================
* SPICE Model generated by Coilcraft
* Coilcraft Part Number : MSS1210-155
* Inductance = 1500uH
*======================================================================
* Model Parameters:
*   Valid Frequency Range = 0.1MHz-5MHz
*   Ambient Temperature = 25 degC
*   Inductor Impedance Model
*   Use model for Time Domain simulations
*======================================================================
.subckt MSS1210-155_imp port1 port2 PARAMS: Cpar=19.995pF Ind=1500uH
X1 port1 port2 Model1D PARAMS:
+ R1=5
+ R2=1.23
+ C= {Cpar}
+ K1=0.00026
+ K2=135
+ K3= {Ind}
+ K4=0.16
+ K5=0.0000099
+ L=0
+ Is=0
+ a=0
+ L_Z0=0
+ L_EL=0
+ L_F0=0E6
+ PkZ=128255.583
.ends MSS1210-155_imp

*======================================================================
* SPICE Model generated by Coilcraft
* Coilcraft Part Number : MSS1210-185
* Inductance = 1800uH
*======================================================================
* Model Parameters:
*   Valid Frequency Range = 0.1MHz-5MHz
*   Ambient Temperature = 25 degC
*   Inductor Frequency Model
*   Use model for Frequency Domain simulations
*======================================================================
.subckt MSS1210-185_freq port1 port2 PARAMS: Cpar=18.5pF Ind=1800uH
X1 port1 port2 Model1A PARAMS:
+ R1=5
+ R2=1.39
+ C= {Cpar}
+ K1=0.00026
+ K2=150
+ K3= {Ind}
+ K4=0.16
+ K5=0.0000099
+ L=0
+ Is=0
+ a=0
+ L_Z0=0
+ L_EL=0
+ L_F0=0E6
+ PkZ=139042.869
.ends MSS1210-185_freq

*======================================================================
* SPICE Model generated by Coilcraft
* Coilcraft Part Number : MSS1210-185
* Inductance = 1800uH
*======================================================================
* Model Parameters:
*   Valid Frequency Range = 0.1MHz-5MHz
*   Ambient Temperature = 25 degC
*   Inductor Impedance Model
*   Use model for Time Domain simulations
*======================================================================
.subckt MSS1210-185_imp port1 port2 PARAMS: Cpar=18.496pF Ind=1800uH
X1 port1 port2 Model1D PARAMS:
+ R1=5
+ R2=1.39
+ C= {Cpar}
+ K1=0.00026
+ K2=150
+ K3= {Ind}
+ K4=0.16
+ K5=0.0000099
+ L=0
+ Is=0
+ a=0
+ L_Z0=0
+ L_EL=0
+ L_F0=0E6
+ PkZ=139042.869
.ends MSS1210-185_imp

*======================================================================
* SPICE Model generated by Coilcraft
* Coilcraft Part Number : MSS1210-225
* Inductance = 2200uH
*======================================================================
* Model Parameters:
*   Valid Frequency Range = 0.1MHz-5MHz
*   Ambient Temperature = 25 degC
*   Inductor Frequency Model
*   Use model for Frequency Domain simulations
*======================================================================
.subckt MSS1210-225_freq port1 port2 PARAMS: Cpar=22pF Ind=2200uH
X1 port1 port2 Model1A PARAMS:
+ R1=5
+ R2=1.82
+ C= {Cpar}
+ K1=0.00026
+ K2=185
+ K3= {Ind}
+ K4=0.16
+ K5=0.0000099
+ L=0
+ Is=0
+ a=0
+ L_Z0=0
+ L_EL=0
+ L_F0=0E6
+ PkZ=156076.329
.ends MSS1210-225_freq

*======================================================================
* SPICE Model generated by Coilcraft
* Coilcraft Part Number : MSS1210-225
* Inductance = 2200uH
*======================================================================
* Model Parameters:
*   Valid Frequency Range = 0.1MHz-5MHz
*   Ambient Temperature = 25 degC
*   Inductor Impedance Model
*   Use model for Time Domain simulations
*======================================================================
.subckt MSS1210-225_imp port1 port2 PARAMS: Cpar=21.997pF Ind=2200uH
X1 port1 port2 Model1D PARAMS:
+ R1=5
+ R2=1.82
+ C= {Cpar}
+ K1=0.00026
+ K2=185
+ K3= {Ind}
+ K4=0.16
+ K5=0.0000099
+ L=0
+ Is=0
+ a=0
+ L_Z0=0
+ L_EL=0
+ L_F0=0E6
+ PkZ=156076.329
.ends MSS1210-225_imp

*======================================================================
* SPICE Model generated by Coilcraft
* Coilcraft Part Number : MSS1210-275
* Inductance = 2700uH