*======================================================================
* SPICE Model generated by Coilcraft
* Coilcraft Part Number : MSS1246H-102
* Inductance = 1uH
*======================================================================
* Model Parameters:
*   Valid Frequency Range = 0.1MHz-250MHz
*   Ambient Temperature = 25 degC
*   Inductor Frequency Model
*   Use model for Frequency Domain simulations
*======================================================================
.subckt MSS1246H-102_freq port1 port2 PARAMS: Cpar=2.1pF Ind=1uH
X1 port1 port2 Model1A PARAMS:
+ R1=3
+ R2=0.006
+ C= {Cpar}
+ K1=0.000001
+ K2=0.2
+ K3= {Ind}
+ K4=0.000001
+ K5=0.000001
+ L=0
+ Is=0
+ a=0
+ L_Z0=0
+ L_EL=0
+ L_F0=0E6
+ PkZ=2068.56965
.ends MSS1246H-102_freq

*======================================================================
* SPICE Model generated by Coilcraft
* Coilcraft Part Number : MSS1246H-102
* Inductance = 1uH
*======================================================================
* Model Parameters:
*   Valid Frequency Range = 0.1MHz-250MHz
*   Ambient Temperature = 25 degC
*   Inductor Impedance Model
*   Use model for Time Domain simulations
*======================================================================
.subckt MSS1246H-102_imp port1 port2 PARAMS: Cpar=2.1pF Ind=1uH
X1 port1 port2 Model1D PARAMS:
+ R1=3
+ R2=0.006
+ C= {Cpar}
+ K1=0.000001
+ K2=0.2
+ K3= {Ind}
+ K4=0.000001
+ K5=0.000001
+ L=0
+ Is=0
+ a=0
+ L_Z0=0
+ L_EL=0
+ L_F0=0E6
+ PkZ=2068.56965
.ends MSS1246H-102_imp

*======================================================================
* SPICE Model generated by Coilcraft
* Coilcraft Part Number : MSS1246H-152
* Inductance = 1.5uH
*======================================================================
* Model Parameters:
*   Valid Frequency Range = 0.1MHz-250MHz
*   Ambient Temperature = 25 degC
*   Inductor Frequency Model
*   Use model for Frequency Domain simulations
*======================================================================
.subckt MSS1246H-152_freq port1 port2 PARAMS: Cpar=2.6pF Ind=1.5uH
X1 port1 port2 Model1A PARAMS:
+ R1=3
+ R2=0.0066
+ C= {Cpar}
+ K1=0.000001
+ K2=0.33
+ K3= {Ind}
+ K4=0.000001
+ K5=0.000001
+ L=0
+ Is=0
+ a=0
+ L_Z0=0
+ L_EL=0
+ L_F0=0E6
+ PkZ=2917.42853
.ends MSS1246H-152_freq

*======================================================================
* SPICE Model generated by Coilcraft
* Coilcraft Part Number : MSS1246H-152
* Inductance = 1.5uH
*======================================================================
* Model Parameters:
*   Valid Frequency Range = 0.1MHz-250MHz
*   Ambient Temperature = 25 degC
*   Inductor Impedance Model
*   Use model for Time Domain simulations
*======================================================================
.subckt MSS1246H-152_imp port1 port2 PARAMS: Cpar=2.6pF Ind=1.5uH
X1 port1 port2 Model1D PARAMS:
+ R1=3
+ R2=0.0066
+ C= {Cpar}
+ K1=0.000001
+ K2=0.33
+ K3= {Ind}
+ K4=0.000001
+ K5=0.000001
+ L=0
+ Is=0
+ a=0
+ L_Z0=0
+ L_EL=0
+ L_F0=0E6
+ PkZ=2917.42853
.ends MSS1246H-152_imp

*======================================================================
* SPICE Model generated by Coilcraft
* Coilcraft Part Number : MSS1246H-222
* Inductance = 2.2uH
*======================================================================
* Model Parameters:
*   Valid Frequency Range = 0.1MHz-250MHz
*   Ambient Temperature = 25 degC
*   Inductor Frequency Model
*   Use model for Frequency Domain simulations
*======================================================================
.subckt MSS1246H-222_freq port1 port2 PARAMS: Cpar=3pF Ind=2.2uH
X1 port1 port2 Model1A PARAMS:
+ R1=4
+ R2=0.0066
+ C= {Cpar}
+ K1=0.000001
+ K2=0.5
+ K3= {Ind}
+ K4=0.000001
+ K5=0.000001
+ L=0
+ Is=0
+ a=0
+ L_Z0=0
+ L_EL=0
+ L_F0=0E6
+ PkZ=3852.59453
.ends MSS1246H-222_freq

*======================================================================
* SPICE Model generated by Coilcraft
* Coilcraft Part Number : MSS1246H-222
* Inductance = 2.2uH
*======================================================================
* Model Parameters:
*   Valid Frequency Range = 0.1MHz-250MHz
*   Ambient Temperature = 25 degC
*   Inductor Impedance Model
*   Use model for Time Domain simulations
*======================================================================
.subckt MSS1246H-222_imp port1 port2 PARAMS: Cpar=3pF Ind=2.2uH
X1 port1 port2 Model1D PARAMS:
+ R1=4
+ R2=0.0066
+ C= {Cpar}
+ K1=0.000001
+ K2=0.5
+ K3= {Ind}
+ K4=0.000001
+ K5=0.000001
+ L=0
+ Is=0
+ a=0
+ L_Z0=0
+ L_EL=0
+ L_F0=0E6
+ PkZ=3852.59453
.ends MSS1246H-222_imp

*======================================================================
* SPICE Model generated by Coilcraft
* Coilcraft Part Number : MSS1246H-332
* Inductance = 3.3uH
*======================================================================
* Model Parameters:
*   Valid Frequency Range = 0.1MHz-250MHz
*   Ambient Temperature = 25 degC
*   Inductor Frequency Model
*   Use model for Frequency Domain simulations
*======================================================================
.subckt MSS1246H-332_freq port1 port2 PARAMS: Cpar=3.39pF Ind=3.3uH
X1 port1 port2 Model1A PARAMS:
+ R1=4
+ R2=0.012
+ C= {Cpar}
+ K1=0.0000339
+ K2=0.76
+ K3= {Ind}
+ K4=0.000001
+ K5=0.000001
+ L=0
+ Is=0
+ a=0
+ L_Z0=0
+ L_EL=0
+ L_F0=0E6
+ PkZ=5125.72273
.ends MSS1246H-332_freq

*======================================================================
* SPICE Model generated by Coilcraft
* Coilcraft Part Number : MSS1246H-332
* Inductance = 3.3uH
*======================================================================
* Model Parameters:
*   Valid Frequency Range = 0.1MHz-250MHz
*   Ambient Temperature = 25 degC
*   Inductor Impedance Model
*   Use model for Time Domain simulations
*======================================================================
.subckt MSS1246H-332_imp port1 port2 PARAMS: Cpar=3.39pF Ind=3.3uH
X1 port1 port2 Model1D PARAMS:
+ R1=4
+ R2=0.012
+ C= {Cpar}
+ K1=0.0000339
+ K2=0.76
+ K3= {Ind}
+ K4=0.000001
+ K5=0.000001
+ L=0
+ Is=0
+ a=0
+ L_Z0=0
+ L_EL=0
+ L_F0=0E6
+ PkZ=5125.72273
.ends MSS1246H-332_imp

*======================================================================
* SPICE Model generated by Coilcraft
* Coilcraft Part Number : MSS1246H-422
* Inductance = 4.2uH
*======================================================================
* Model Parameters:
*   Valid Frequency Range = 0.1MHz-150MHz
*   Ambient Temperature = 25 degC
*   Inductor Frequency Model
*   Use model for Frequency Domain simulations
*======================================================================
.subckt MSS1246H-422_freq port1 port2 PARAMS: Cpar=4.21pF Ind=4.2uH
X1 port1 port2 Model1A PARAMS:
+ R1=3
+ R2=0.0135
+ C= {Cpar}
+ K1=0.0000354
+ K2=0.96
+ K3= {Ind}
+ K4=0.101
+ K5=0.0000272
+ L=0
+ Is=0
+ a=0
+ L_Z0=0
+ L_EL=0
+ L_F0=0E6
+ PkZ=6035.87945
.ends MSS1246H-422_freq

*======================================================================
* SPICE Model generated by Coilcraft
* Coilcraft Part Number : MSS1246H-422
* Inductance = 4.2uH
*======================================================================
* Model Parameters:
*   Valid Frequency Range = 0.1MHz-150MHz
*   Ambient Temperature = 25 degC
*   Inductor Impedance Model
*   Use model for Time Domain simulations
*======================================================================
.subckt MSS1246H-422_imp port1 port2 PARAMS: Cpar=3.508pF Ind=4.2uH
X1 port1 port2 Model1D PARAMS:
+ R1=3
+ R2=0.0135
+ C= {Cpar}
+ K1=0.0000354
+ K2=0.96
+ K3= {Ind}
+ K4=0.101
+ K5=0.0000272
+ L=0
+ Is=0
+ a=0
+ L_Z0=0
+ L_EL=0
+ L_F0=0E6
+ PkZ=6035.87945
.ends MSS1246H-422_imp

*======================================================================
* SPICE Model generated by Coilcraft
* Coilcraft Part Number : MSS1246H-562
* Inductance = 5.6uH
*======================================================================
* Model Parameters:
*   Valid Frequency Range = 0.1MHz-150MHz
*   Ambient Temperature = 25 degC
*   Inductor Frequency Model
*   Use model for Frequency Domain simulations
*======================================================================
.subckt MSS1246H-562_freq port1 port2 PARAMS: Cpar=3.64pF Ind=5.6uH
X1 port1 port2 Model1A PARAMS:
+ R1=3
+ R2=0.0175
+ C= {Cpar}
+ K1=0.0000354
+ K2=1.32
+ K3= {Ind}
+ K4=0.137
+ K5=0.0000261
+ L=0
+ Is=0
+ a=0
+ L_Z0=0
+ L_EL=0
+ L_F0=0E6
+ PkZ=8036.2338
.ends MSS1246H-562_freq

*======================================================================
* SPICE Model generated by Coilcraft
* Coilcraft Part Number : MSS1246H-562
* Inductance = 5.6uH
*======================================================================
* Model Parameters:
*   Valid Frequency Range = 0.1MHz-150MHz
*   Ambient Temperature = 25 degC
*   Inductor Impedance Model
*   Use model for Time Domain simulations
*======================================================================
.subckt MSS1246H-562_imp port1 port2 PARAMS: Cpar=3.032pF Ind=5.6uH
X1 port1 port2 Model1D PARAMS:
+ R1=3
+ R2=0.0175
+ C= {Cpar}
+ K1=0.0000354
+ K2=1.32
+ K3= {Ind}
+ K4=0.137
+ K5=0.0000261
+ L=0
+ Is=0
+ a=0
+ L_Z0=0
+ L_EL=0
+ L_F0=0E6
+ PkZ=8036.2338
.ends MSS1246H-562_imp

*======================================================================
* SPICE Model generated by Coilcraft
* Coilcraft Part Number : MSS1246H-682
* Inductance = 6.8uH
*======================================================================
* Model Parameters:
*   Valid Frequency Range = 0.1MHz-150MHz
*   Ambient Temperature = 25 degC
*   Inductor Frequency Model
*   Use model for Frequency Domain simulations
*======================================================================
.subckt MSS1246H-682_freq port1 port2 PARAMS: Cpar=3.96pF Ind=6.8uH
X1 port1 port2 Model1A PARAMS:
+ R1=3
+ R2=0.0195
+ C= {Cpar}
+ K1=0.0000353
+ K2=1.73
+ K3= {Ind}
+ K4=0.175
+ K5=0.0000227
+ L=0
+ Is=0
+ a=0
+ L_Z0=0
+ L_EL=0
+ L_F0=0E6
+ PkZ=9809.3389
.ends MSS1246H-682_freq

*======================================================================
* SPICE Model generated by Coilcraft
* Coilcraft Part Number : MSS1246H-682
* Inductance = 6.8uH
*======================================================================
* Model Parameters:
*   Valid Frequency Range = 0.1MHz-150MHz
*   Ambient Temperature = 25 degC
*   Inductor Impedance Model
*   Use model for Time Domain simulations
*======================================================================
.subckt MSS1246H-682_imp port1 port2 PARAMS: Cpar=3.293pF Ind=6.8uH
X1 port1 port2 Model1D PARAMS:
+ R1=3
+ R2=0.0195
+ C= {Cpar}
+ K1=0.0000353
+ K2=1.73
+ K3= {Ind}
+ K4=0.175
+ K5=0.0000227
+ L=0
+ Is=0
+ a=0
+ L_Z0=0
+ L_EL=0
+ L_F0=0E6
+ PkZ=9809.3389
.ends MSS1246H-682_imp

*======================================================================
* SPICE Model generated by Coilcraft
* Coilcraft Part Number : MSS1246H-822
* Inductance = 8.2uH
*======================================================================
* Model Parameters:
*   Valid Frequency Range = 0.1MHz-150MHz
*   Ambient Temperature = 25 degC
*   Inductor Frequency Model
*   Use model for Frequency Domain simulations
*======================================================================
.subckt MSS1246H-822_freq port1 port2 PARAMS: Cpar=4.17pF Ind=8.2uH
X1 port1 port2 Model1A PARAMS:
+ R1=3
+ R2=0.0255
+ C= {Cpar}
+ K1=0.0000353
+ K2=2.02
+ K3= {Ind}
+ K4=0.181
+ K5=0.00000856
+ L=0
+ Is=0
+ a=0
+ L_Z0=0
+ L_EL=0
+ L_F0=0E6
+ PkZ=10666.5948
.ends MSS1246H-822_freq

*======================================================================
* SPICE Model generated by Coilcraft
* Coilcraft Part Number : MSS1246H-822
* Inductance = 8.2uH
*======================================================================
* Model Parameters:
*   Valid Frequency Range = 0.1MHz-150MHz
*   Ambient Temperature = 25 degC
*   Inductor Impedance Model
*   Use model for Time Domain simulations
*======================================================================
.subckt MSS1246H-822_imp port1 port2 PARAMS: Cpar=3.668pF Ind=8.2uH
X1 port1 port2 Model1D PARAMS:
+ R1=3
+ R2=0.0255
+ C= {Cpar}
+ K1=0.0000353
+ K2=2.02
+ K3= {Ind}
+ K4=0.181
+ K5=0.00000856
+ L=0
+ Is=0
+ a=0
+ L_Z0=0
+ L_EL=0
+ L_F0=0E6
+ PkZ=10666.5948
.ends MSS1246H-822_imp

*======================================================================
* SPICE Model generated by Coilcraft
* Coilcraft Part Number : MSS1246H-103
* Inductance = 10uH
*======================================================================
* Model Parameters:
*   Valid Frequency Range = 0.1MHz-150MHz
*   Ambient Temperature = 25 degC
*   Inductor Frequency Model
*   Use model for Frequency Domain simulations
*======================================================================
.subckt MSS1246H-103_freq port1 port2 PARAMS: Cpar=4.55pF Ind=10uH
X1 port1 port2 Model1A PARAMS:
+ R1=3
+ R2=0.028
+ C= {Cpar}
+ K1=0.0000354
+ K2=2.46
+ K3= {Ind}
+ K4=0.198
+ K5=0.000906
+ L=0
+ Is=0
+ a=0
+ L_Z0=0
+ L_EL=0
+ L_F0=0E6
+ PkZ=12339.5329
.ends MSS1246H-103_freq

*======================================================================
* SPICE Model generated by Coilcraft
* Coilcraft Part Number : MSS1246H-103
* Inductance = 10uH
*======================================================================
* Model Parameters:
*   Valid Frequency Range = 0.1MHz-150MHz
*   Ambient Temperature = 25 degC
*   Inductor Impedance Model
*   Use model for Time Domain simulations
*======================================================================
.subckt MSS1246H-103_imp port1 port2 PARAMS: Cpar=3.652pF Ind=10uH
X1 port1 port2 Model1D PARAMS:
+ R1=3
+ R2=0.028
+ C= {Cpar}
+ K1=0.0000354
+ K2=2.46
+ K3= {Ind}
+ K4=0.198
+ K5=0.000906
+ L=0
+ Is=0
+ a=0
+ L_Z0=0
+ L_EL=0
+ L_F0=0E6
+ PkZ=12339.5329
.ends MSS1246H-103_imp

*======================================================================
* SPICE Model generated by Coilcraft
* Coilcraft Part Number : MSS1246H-123
* Inductance = 12uH
*======================================================================
* Model Parameters:
*   Valid Frequency Range = 0.1MHz-150MHz
*   Ambient Temperature = 25 degC
*   Inductor Frequency Model
*   Use model for Frequency Domain simulations
*======================================================================
.subckt MSS1246H-123_freq port1 port2 PARAMS: Cpar=4.26pF Ind=12uH
X1 port1 port2 Model1A PARAMS:
+ R1=3
+ R2=0.03
+ C= {Cpar}
+ K1=0.0000354
+ K2=2.6
+ K3= {Ind}
+ K4=0.236
+ K5=0.000929
+ L=0
+ Is=0
+ a=0
+ L_Z0=0
+ L_EL=0
+ L_F0=0E6
+ PkZ=12718.0267
.ends MSS1246H-123_freq

*======================================================================
* SPICE Model generated by Coilcraft
* Coilcraft Part Number : MSS1246H-123
* Inductance = 12uH
*======================================================================
* Model Parameters:
*   Valid Frequency Range = 0.1MHz-150MHz
*   Ambient Temperature = 25 degC
*   Inductor Impedance Model
*   Use model for Time Domain simulations
*======================================================================
.subckt MSS1246H-123_imp port1 port2 PARAMS: Cpar=3.427pF Ind=12uH
X1 port1 port2 Model1D PARAMS:
+ R1=3
+ R2=0.03
+ C= {Cpar}
+ K1=0.0000354
+ K2=2.6
+ K3= {Ind}
+ K4=0.236
+ K5=0.000929
+ L=0
+ Is=0
+ a=0
+ L_Z0=0
+ L_EL=0
+ L_F0=0E6
+ PkZ=12718.0267
.ends MSS1246H-123_imp

*======================================================================
* SPICE Model generated by Coilcraft
* Coilcraft Part Number : MSS1246H-153
* Inductance = 15uH
*======================================================================
* Model Parameters:
*   Valid Frequency Range = 0.1MHz-150MHz
*   Ambient Temperature = 25 degC
*   Inductor Frequency Model
*   Use model for Frequency Domain simulations
*======================================================================
.subckt MSS1246H-153_freq port1 port2 PARAMS: Cpar=3.97pF Ind=15uH
X1 port1 port2 Model1A PARAMS:
+ R1=5
+ R2=0.046
+ C= {Cpar}
+ K1=0.0000353
+ K2=3.8
+ K3= {Ind}
+ K4=0.0915
+ K5=0.484
+ L=0
+ Is=0
+ a=0
+ L_Z0=0
+ L_EL=0
+ L_F0=0E6
+ PkZ=17246.5441
.ends MSS1246H-153_freq

*======================================================================
* SPICE Model generated by Coilcraft
* Coilcraft Part Number : MSS1246H-153
* Inductance = 15uH
*======================================================================
* Model Parameters:
*   Valid Frequency Range = 0.1MHz-150MHz
*   Ambient Temperature = 25 degC
*   Inductor Impedance Model
*   Use model for Time Domain simulations
*======================================================================
.subckt MSS1246H-153_imp port1 port2 PARAMS: Cpar=3.58pF Ind=15uH
X1 port1 port2 Model1D PARAMS:
+ R1=5
+ R2=0.046
+ C= {Cpar}
+ K1=0.0000353
+ K2=3.8
+ K3= {Ind}
+ K4=0.0915
+ K5=0.484
+ L=0
+ Is=0
+ a=0
+ L_Z0=0
+ L_EL=0
+ L_F0=0E6
+ PkZ=17246.5441
.ends MSS1246H-153_imp

*======================================================================
* SPICE Model generated by Coilcraft
* Coilcraft Part Number : MSS1246H-183
* Inductance = 18uH
*======================================================================
* Model Parameters:
*   Valid Frequency Range = 0.1MHz-150MHz
*   Ambient Temperature = 25 degC
*   Inductor Frequency Model
*   Use model for Frequency Domain simulations
*======================================================================
.subckt MSS1246H-183_freq port1 port2 PARAMS: Cpar=4.51pF Ind=18uH
X1 port1 port2 Model1A PARAMS:
+ R1=4
+ R2=0.049
+ C= {Cpar}
+ K1=0.0000353
+ K2=4.52
+ K3= {Ind}
+ K4=0.189
+ K5=0.295
+ L=0
+ Is=0
+ a=0
+ L_Z0=0
+ L_EL=0
+ L_F0=0E6
+ PkZ=19377.9353
.ends MSS1246H-183_freq

*======================================================================
* SPICE Model generated by Coilcraft
* Coilcraft Part Number : MSS1246H-183
* Inductance = 18uH
*======================================================================
* Model Parameters:
*   Valid Frequency Range = 0.1MHz-150MHz
*   Ambient Temperature = 25 degC
*   Inductor Impedance Model
*   Use model for Time Domain simulations
*======================================================================
.subckt MSS1246H-183_imp port1 port2 PARAMS: Cpar=3.778pF Ind=18uH
X1 port1 port2 Model1D PARAMS:
+ R1=4
+ R2=0.049
+ C= {Cpar}
+ K1=0.0000353
+ K2=4.52
+ K3= {Ind}
+ K4=0.189
+ K5=0.295
+ L=0
+ Is=0
+ a=0
+ L_Z0=0
+ L_EL=0
+ L_F0=0E6
+ PkZ=19377.9353
.ends MSS1246H-183_imp

*======================================================================
* SPICE Model generated by Coilcraft
* Coilcraft Part Number : MSS1246H-223
* Inductance = 22uH
*======================================================================
* Model Parameters:
*   Valid Frequency Range = 0.1MHz-150MHz
*   Ambient Temperature = 25 degC
*   Inductor Frequency Model
*   Use model for Frequency Domain simulations
*======================================================================
.subckt MSS1246H-223_freq port1 port2 PARAMS: Cpar=4.5pF Ind=22uH
X1 port1 port2 Model1A PARAMS:
+ R1=6
+ R2=0.06
+ C= {Cpar}
+ K1=0.000035
+ K2=4.9
+ K3= {Ind}
+ K4=0.348
+ K5=0.0000514
+ L=0
+ Is=0
+ a=0
+ L_Z0=0
+ L_EL=0
+ L_F0=0E6
+ PkZ=19598.8041
.ends MSS1246H-223_freq

*======================================================================
* SPICE Model generated by Coilcraft
* Coilcraft Part Number : MSS1246H-223
* Inductance = 22uH
*======================================================================
* Model Parameters:
*   Valid Frequency Range = 0.1MHz-150MHz
*   Ambient Temperature = 25 degC
*   Inductor Impedance Model
*   Use model for Time Domain simulations
*======================================================================
.subckt MSS1246H-223_imp port1 port2 PARAMS: Cpar=4.022pF Ind=22uH
X1 port1 port2 Model1D PARAMS:
+ R1=6
+ R2=0.06
+ C= {Cpar}
+ K1=0.000035
+ K2=4.9
+ K3= {Ind}
+ K4=0.348
+ K5=0.0000514
+ L=0
+ Is=0
+ a=0
+ L_Z0=0
+ L_EL=0
+ L_F0=0E6
+ PkZ=19598.8041
.ends MSS1246H-223_imp

*======================================================================
* SPICE Model generated by Coilcraft
* Coilcraft Part Number : MSS1246H-273
* Inductance = 27uH
*======================================================================
* Model Parameters:
*   Valid Frequency Range = 0.1MHz-150MHz
*   Ambient Temperature = 25 degC
*   Inductor Frequency Model
*   Use model for Frequency Domain simulations
*======================================================================
.subckt MSS1246H-273_freq port1 port2 PARAMS: Cpar=3.93pF Ind=27uH
X1 port1 port2 Model1A PARAMS:
+ R1=6
+ R2=0.067
+ C= {Cpar}
+ K1=0.000035
+ K2=6.6
+ K3= {Ind}
+ K4=0.667
+ K5=0.0000689
+ L=0
+ Is=0
+ a=0
+ L_Z0=0
+ L_EL=0
+ L_F0=0E6
+ PkZ=26408.3347
.ends MSS1246H-273_freq

*======================================================================
* SPICE Model generated by Coilcraft
* Coilcraft Part Number : MSS1246H-273
* Inductance = 27uH
*======================================================================
* Model Parameters:
*   Valid Frequency Range = 0.1MHz-150MHz
*   Ambient Temperature = 25 degC
*   Inductor Impedance Model
*   Use model for Time Domain simulations
*======================================================================
.subckt MSS1246H-273_imp port1 port2 PARAMS: Cpar=3.253pF Ind=27uH
X1 port1 port2 Model1D PARAMS:
+ R1=6
+ R2=0.067
+ C= {Cpar}
+ K1=0.000035
+ K2=6.6
+ K3= {Ind}
+ K4=0.667
+ K5=0.0000689
+ L=0
+ Is=0
+ a=0
+ L_Z0=0
+ L_EL=0
+ L_F0=0E6
+ PkZ=26408.3347
.ends MSS1246H-273_imp

*======================================================================
* SPICE Model generated by Coilcraft
* Coilcraft Part Number : MSS1246H-333
* Inductance = 33uH
*======================================================================
* Model Parameters:
*   Valid Frequency Range = 0.1MHz-150MHz
*   Ambient Temperature = 25 degC
*   Inductor Frequency Model
*   Use model for Frequency Domain simulations
*======================================================================
.subckt MSS1246H-333_freq port1 port2 PARAMS: Cpar=5.06pF Ind=33uH
X1 port1 port2 Model1A PARAMS:
+ R1=5
+ R2=0.078
+ C= {Cpar}
+ K1=0.000035
+ K2=7.4
+ K3= {Ind}
+ K4=0.611
+ K5=0.0000913
+ L=0
+ Is=0
+ a=0
+ L_Z0=0
+ L_EL=0
+ L_F0=0E6
+ PkZ=26249.3678
.ends MSS1246H-333_freq

*======================================================================
* SPICE Model generated by Coilcraft
* Coilcraft Part Number : MSS1246H-333
* Inductance = 33uH
*======================================================================
* Model Parameters:
*   Valid Frequency Range = 0.1MHz-150MHz
*   Ambient Temperature = 25 degC
*   Inductor Impedance Model
*   Use model for Time Domain simulations
*======================================================================
.subckt MSS1246H-333_imp port1 port2 PARAMS: Cpar=4.402pF Ind=33uH
X1 port1 port2 Model1D PARAMS:
+ R1=5
+ R2=0.078
+ C= {Cpar}
+ K1=0.000035
+ K2=7.4
+ K3= {Ind}
+ K4=0.611
+ K5=0.0000913
+ L=0
+ Is=0
+ a=0
+ L_Z0=0
+ L_EL=0
+ L_F0=0E6
+ PkZ=26249.3678
.ends MSS1246H-333_imp

*======================================================================
* SPICE Model generated by Coilcraft
* Coilcraft Part Number : MSS1246H-393
* Inductance = 39uH
*======================================================================
* Model Parameters:
*   Valid Frequency Range = 0.1MHz-150MHz
*   Ambient Temperature = 25 degC
*   Inductor Frequency Model
*   Use model for Frequency Domain simulations
*======================================================================
.subckt MSS1246H-393_freq port1 port2 PARAMS: Cpar=4.72pF Ind=39uH
X1 port1 port2 Model1A PARAMS:
+ R1=5
+ R2=0.096
+ C= {Cpar}
+ K1=0.000035
+ K2=9.7
+ K3= {Ind}
+ K4=0.582
+ K5=0.0000729
+ L=0
+ Is=0
+ a=0
+ L_Z0=0
+ L_EL=0
+ L_F0=0E6
+ PkZ=33330.1986
.ends MSS1246H-393_freq

*======================================================================
* SPICE Model generated by Coilcraft
* Coilcraft Part Number : MSS1246H-393
* Inductance = 39uH
*======================================================================
* Model Parameters:
*   Valid Frequency Range = 0.1MHz-150MHz
*   Ambient Temperature = 25 degC
*   Inductor Impedance Model
*   Use model for Time Domain simulations
*======================================================================
.subckt MSS1246H-393_imp port1 port2 PARAMS: Cpar=4.244pF Ind=39uH
X1 port1 port2 Model1D PARAMS:
+ R1=5
+ R2=0.096
+ C= {Cpar}
+ K1=0.000035
+ K2=9.7
+ K3= {Ind}
+ K4=0.582
+ K5=0.0000729
+ L=0
+ Is=0
+ a=0
+ L_Z0=0
+ L_EL=0
+ L_F0=0E6
+ PkZ=33330.1986
.ends MSS1246H-393_imp

*======================================================================
* SPICE Model generated by Coilcraft
* Coilcraft Part Number : MSS1246H-473
* Inductance = 47uH
*======================================================================
* Model Parameters:
*   Valid Frequency Range = 0.1MHz-100MHz
*   Ambient Temperature = 25 degC
*   Inductor Frequency Model
*   Use model for Frequency Domain simulations
*======================================================================
.subckt MSS1246H-473_freq port1 port2 PARAMS: Cpar=4.5pF Ind=47uH
X1 port1 port2 Model1A PARAMS:
+ R1=5
+ R2=0.105
+ C= {Cpar}
+ K1=0.0000351
+ K2=10
+ K3= {Ind}
+ K4=0.642
+ K5=0.00107
+ L=0
+ Is=0
+ a=0
+ L_Z0=0
+ L_EL=0
+ L_F0=0E6
+ PkZ=33584.6128
.ends MSS1246H-473_freq

*======================================================================
* SPICE Model generated by Coilcraft
* Coilcraft Part Number : MSS1246H-473
* Inductance = 47uH
*======================================================================
* Model Parameters:
*   Valid Frequency Range = 0.1MHz-100MHz
*   Ambient Temperature = 25 degC
*   Inductor Impedance Model
*   Use model for Time Domain simulations
*======================================================================
.subckt MSS1246H-473_imp port1 port2 PARAMS: Cpar=3.924pF Ind=47uH
X1 port1 port2 Model1D PARAMS:
+ R1=5
+ R2=0.105
+ C= {Cpar}
+ K1=0.0000351
+ K2=10
+ K3= {Ind}
+ K4=0.642
+ K5=0.00107
+ L=0
+ Is=0
+ a=0
+ L_Z0=0
+ L_EL=0
+ L_F0=0E6
+ PkZ=33584.6128
.ends MSS1246H-473_imp

*======================================================================
* SPICE Model generated by Coilcraft
* Coilcraft Part Number : MSS1246H-563
* Inductance = 56uH
*======================================================================
* Model Parameters:
*   Valid Frequency Range = 0.1MHz-100MHz
*   Ambient Temperature = 25 degC
*   Inductor Frequency Model
*   Use model for Frequency Domain simulations
*======================================================================
.subckt MSS1246H-563_freq port1 port2 PARAMS: Cpar=5.22pF Ind=56uH
X1 port1 port2 Model1A PARAMS:
+ R1=6
+ R2=0.135
+ C= {Cpar}
+ K1=0.0000351
+ K2=12.1
+ K3= {Ind}
+ K4=0.474
+ K5=0.00108
+ L=0
+ Is=0
+ a=0
+ L_Z0=0
+ L_EL=0
+ L_F0=0E6
+ PkZ=36817.6167
.ends MSS1246H-563_freq

*======================================================================
* SPICE Model generated by Coilcraft
* Coilcraft Part Number : MSS1246H-563
* Inductance = 56uH
*======================================================================
* Model Parameters:
*   Valid Frequency Range = 0.1MHz-100MHz
*   Ambient Temperature = 25 degC
*   Inductor Impedance Model
*   Use model for Time Domain simulations
*======================================================================
.subckt MSS1246H-563_imp port1 port2 PARAMS: Cpar=4.813pF Ind=56uH
X1 port1 port2 Model1D PARAMS:
+ R1=6
+ R2=0.135
+ C= {Cpar}
+ K1=0.0000351
+ K2=12.1
+ K3= {Ind}
+ K4=0.474
+ K5=0.00108
+ L=0
+ Is=0
+ a=0
+ L_Z0=0
+ L_EL=0
+ L_F0=0E6
+ PkZ=36817.6167
.ends MSS1246H-563_imp

*======================================================================
* SPICE Model generated by Coilcraft
* Coilcraft Part Number : MSS1246H-683
* Inductance = 68uH
*======================================================================
* Model Parameters:
*   Valid Frequency Range = 0.1MHz-100MHz
*   Ambient Temperature = 25 degC
*   Inductor Frequency Model
*   Use model for Frequency Domain simulations
*======================================================================
.subckt MSS1246H-683_freq port1 port2 PARAMS: Cpar=5.04pF Ind=68uH
X1 port1 port2 Model1A PARAMS:
+ R1=7
+ R2=0.15
+ C= {Cpar}
+ K1=0.0000362
+ K2=15.3
+ K3= {Ind}
+ K4=0.962
+ K5=0.00857
+ L=0
+ Is=0
+ a=0
+ L_Z0=0
+ L_EL=0
+ L_F0=0E6
+ PkZ=45495.5402
.ends MSS1246H-683_freq

*======================================================================
* SPICE Model generated by Coilcraft
* Coilcraft Part Number : MSS1246H-683
* Inductance = 68uH
*======================================================================
* Model Parameters:
*   Valid Frequency Range = 0.1MHz-100MHz
*   Ambient Temperature = 25 degC
*   Inductor Impedance Model
*   Use model for Time Domain simulations
*======================================================================
.subckt MSS1246H-683_imp port1 port2 PARAMS: Cpar=4.241pF Ind=68uH
X1 port1 port2 Model1D PARAMS:
+ R1=7
+ R2=0.15
+ C= {Cpar}
+ K1=0.0000362
+ K2=15.3
+ K3= {Ind}
+ K4=0.962
+ K5=0.00857
+ L=0
+ Is=0
+ a=0
+ L_Z0=0