*======================================================================
* SPICE Model generated by Coilcraft
* Coilcraft Part Number : MSS1260H-102
* Inductance = 1uH
*======================================================================
* Model Parameters:
*   Valid Frequency Range = 0.1MHz-500MHz
*   Ambient Temperature = 25 degC
*   Inductor Frequency Model
*   Use model for Frequency Domain simulations
*======================================================================
.subckt MSS1260H-102_freq port1 port2 PARAMS: Cpar=3.07pF Ind=1uH
X1 port1 port2 Model1A PARAMS:
+ R1=10
+ R2=0.0052
+ C= {Cpar}
+ K1=0.000001
+ K2=0.21
+ K3= {Ind}
+ K4=0.0218
+ K5=0.0000406
+ L=0
+ Is=0
+ a=0
+ L_Z0=0
+ L_EL=0
+ L_F0=0E6
+ PkZ=1949.15162
.ends MSS1260H-102_freq

*======================================================================
* SPICE Model generated by Coilcraft
* Coilcraft Part Number : MSS1260H-102
* Inductance = 1uH
*======================================================================
* Model Parameters:
*   Valid Frequency Range = 0.1MHz-500MHz
*   Ambient Temperature = 25 degC
*   Inductor Impedance Model
*   Use model for Time Domain simulations
*======================================================================
.subckt MSS1260H-102_imp port1 port2 PARAMS: Cpar=2.52pF Ind=1uH
X1 port1 port2 Model1D PARAMS:
+ R1=10
+ R2=0.0052
+ C= {Cpar}
+ K1=0.000001
+ K2=0.21
+ K3= {Ind}
+ K4=0.0218
+ K5=0.0000406
+ L=0
+ Is=0
+ a=0
+ L_Z0=0
+ L_EL=0
+ L_F0=0E6
+ PkZ=1949.15162
.ends MSS1260H-102_imp

*======================================================================
* SPICE Model generated by Coilcraft
* Coilcraft Part Number : MSS1260H-152
* Inductance = 1.5uH
*======================================================================
* Model Parameters:
*   Valid Frequency Range = 0.1MHz-500MHz
*   Ambient Temperature = 25 degC
*   Inductor Frequency Model
*   Use model for Frequency Domain simulations
*======================================================================
.subckt MSS1260H-152_freq port1 port2 PARAMS: Cpar=3.57pF Ind=1.5uH
X1 port1 port2 Model1A PARAMS:
+ R1=9
+ R2=0.0058
+ C= {Cpar}
+ K1=0.000001
+ K2=0.34
+ K3= {Ind}
+ K4=0.0228
+ K5=0.0000158
+ L=0
+ Is=0
+ a=0
+ L_Z0=0
+ L_EL=0
+ L_F0=0E6
+ PkZ=2711.36961
.ends MSS1260H-152_freq

*======================================================================
* SPICE Model generated by Coilcraft
* Coilcraft Part Number : MSS1260H-152
* Inductance = 1.5uH
*======================================================================
* Model Parameters:
*   Valid Frequency Range = 0.1MHz-500MHz
*   Ambient Temperature = 25 degC
*   Inductor Impedance Model
*   Use model for Time Domain simulations
*======================================================================
.subckt MSS1260H-152_imp port1 port2 PARAMS: Cpar=3.191pF Ind=1.5uH
X1 port1 port2 Model1D PARAMS:
+ R1=9
+ R2=0.0058
+ C= {Cpar}
+ K1=0.000001
+ K2=0.34
+ K3= {Ind}
+ K4=0.0228
+ K5=0.0000158
+ L=0
+ Is=0
+ a=0
+ L_Z0=0
+ L_EL=0
+ L_F0=0E6
+ PkZ=2711.36961
.ends MSS1260H-152_imp

*======================================================================
* SPICE Model generated by Coilcraft
* Coilcraft Part Number : MSS1260H-222
* Inductance = 2.2uH
*======================================================================
* Model Parameters:
*   Valid Frequency Range = 0.1MHz-500MHz
*   Ambient Temperature = 25 degC
*   Inductor Frequency Model
*   Use model for Frequency Domain simulations
*======================================================================
.subckt MSS1260H-222_freq port1 port2 PARAMS: Cpar=4.6pF Ind=2.2uH
X1 port1 port2 Model1A PARAMS:
+ R1=8
+ R2=0.0075
+ C= {Cpar}
+ K1=0.000001
+ K2=0.61
+ K3= {Ind}
+ K4=0.0542
+ K5=9.39E-07
+ L=0
+ Is=0
+ a=0
+ L_Z0=0
+ L_EL=0
+ L_F0=0E6
+ PkZ=4088.79514
.ends MSS1260H-222_freq

*======================================================================
* SPICE Model generated by Coilcraft
* Coilcraft Part Number : MSS1260H-222
* Inductance = 2.2uH
*======================================================================
* Model Parameters:
*   Valid Frequency Range = 0.1MHz-500MHz
*   Ambient Temperature = 25 degC
*   Inductor Impedance Model
*   Use model for Time Domain simulations
*======================================================================
.subckt MSS1260H-222_imp port1 port2 PARAMS: Cpar=4.164pF Ind=2.2uH
X1 port1 port2 Model1D PARAMS:
+ R1=8
+ R2=0.0075
+ C= {Cpar}
+ K1=0.000001
+ K2=0.61
+ K3= {Ind}
+ K4=0.0542
+ K5=9.39E-07
+ L=0
+ Is=0
+ a=0
+ L_Z0=0
+ L_EL=0
+ L_F0=0E6
+ PkZ=4088.79514
.ends MSS1260H-222_imp

*======================================================================
* SPICE Model generated by Coilcraft
* Coilcraft Part Number : MSS1260H-332
* Inductance = 3.3uH
*======================================================================
* Model Parameters:
*   Valid Frequency Range = 0.1MHz-250MHz
*   Ambient Temperature = 25 degC
*   Inductor Frequency Model
*   Use model for Frequency Domain simulations
*======================================================================
.subckt MSS1260H-332_freq port1 port2 PARAMS: Cpar=5.3pF Ind=3.3uH
X1 port1 port2 Model1A PARAMS:
+ R1=8
+ R2=0.0088
+ C= {Cpar}
+ K1=0.000001
+ K2=0.74
+ K3= {Ind}
+ K4=0.0591
+ K5=0.0000856
+ L=0
+ Is=0
+ a=0
+ L_Z0=0
+ L_EL=0
+ L_F0=0E6
+ PkZ=4430.67272
.ends MSS1260H-332_freq

*======================================================================
* SPICE Model generated by Coilcraft
* Coilcraft Part Number : MSS1260H-332
* Inductance = 3.3uH
*======================================================================
* Model Parameters:
*   Valid Frequency Range = 0.1MHz-250MHz
*   Ambient Temperature = 25 degC
*   Inductor Impedance Model
*   Use model for Time Domain simulations
*======================================================================
.subckt MSS1260H-332_imp port1 port2 PARAMS: Cpar=4.532pF Ind=3.3uH
X1 port1 port2 Model1D PARAMS:
+ R1=8
+ R2=0.0088
+ C= {Cpar}
+ K1=0.000001
+ K2=0.74
+ K3= {Ind}
+ K4=0.0591
+ K5=0.0000856
+ L=0
+ Is=0
+ a=0
+ L_Z0=0
+ L_EL=0
+ L_F0=0E6
+ PkZ=4430.67272
.ends MSS1260H-332_imp

*======================================================================
* SPICE Model generated by Coilcraft
* Coilcraft Part Number : MSS1260H-422
* Inductance = 4.2uH
*======================================================================
* Model Parameters:
*   Valid Frequency Range = 0.1MHz-250MHz
*   Ambient Temperature = 25 degC
*   Inductor Frequency Model
*   Use model for Frequency Domain simulations
*======================================================================
.subckt MSS1260H-422_freq port1 port2 PARAMS: Cpar=4.36pF Ind=4.2uH
X1 port1 port2 Model1A PARAMS:
+ R1=7
+ R2=0.011
+ C= {Cpar}
+ K1=0.000001
+ K2=1.2
+ K3= {Ind}
+ K4=0.0776
+ K5=0.00000706
+ L=0
+ Is=0
+ a=0
+ L_Z0=0
+ L_EL=0
+ L_F0=0E6
+ PkZ=7087.32951
.ends MSS1260H-422_freq

*======================================================================
* SPICE Model generated by Coilcraft
* Coilcraft Part Number : MSS1260H-422
* Inductance = 4.2uH
*======================================================================
* Model Parameters:
*   Valid Frequency Range = 0.1MHz-250MHz
*   Ambient Temperature = 25 degC
*   Inductor Impedance Model
*   Use model for Time Domain simulations
*======================================================================
.subckt MSS1260H-422_imp port1 port2 PARAMS: Cpar=3.911pF Ind=4.2uH
X1 port1 port2 Model1D PARAMS:
+ R1=7
+ R2=0.011
+ C= {Cpar}
+ K1=0.000001
+ K2=1.2
+ K3= {Ind}
+ K4=0.0776
+ K5=0.00000706
+ L=0
+ Is=0
+ a=0
+ L_Z0=0
+ L_EL=0
+ L_F0=0E6
+ PkZ=7087.32951
.ends MSS1260H-422_imp

*======================================================================
* SPICE Model generated by Coilcraft
* Coilcraft Part Number : MSS1260H-562
* Inductance = 5.6uH
*======================================================================
* Model Parameters:
*   Valid Frequency Range = 0.1MHz-250MHz
*   Ambient Temperature = 25 degC
*   Inductor Frequency Model
*   Use model for Frequency Domain simulations
*======================================================================
.subckt MSS1260H-562_freq port1 port2 PARAMS: Cpar=4.55pF Ind=5.6uH
X1 port1 port2 Model1A PARAMS:
+ R1=6
+ R2=0.0126
+ C= {Cpar}
+ K1=0.000001
+ K2=1.6
+ K3= {Ind}
+ K4=0.105
+ K5=0.000215
+ L=0
+ Is=0
+ a=0
+ L_Z0=0
+ L_EL=0
+ L_F0=0E6
+ PkZ=8908.51279
.ends MSS1260H-562_freq

*======================================================================
* SPICE Model generated by Coilcraft
* Coilcraft Part Number : MSS1260H-562
* Inductance = 5.6uH
*======================================================================
* Model Parameters:
*   Valid Frequency Range = 0.1MHz-250MHz
*   Ambient Temperature = 25 degC
*   Inductor Impedance Model
*   Use model for Time Domain simulations
*======================================================================
.subckt MSS1260H-562_imp port1 port2 PARAMS: Cpar=3.797pF Ind=5.6uH
X1 port1 port2 Model1D PARAMS:
+ R1=6
+ R2=0.0126
+ C= {Cpar}
+ K1=0.000001
+ K2=1.6
+ K3= {Ind}
+ K4=0.105
+ K5=0.000215
+ L=0
+ Is=0
+ a=0
+ L_Z0=0
+ L_EL=0
+ L_F0=0E6
+ PkZ=8908.51279
.ends MSS1260H-562_imp

*======================================================================
* SPICE Model generated by Coilcraft
* Coilcraft Part Number : MSS1260H-682
* Inductance = 6.8uH
*======================================================================
* Model Parameters:
*   Valid Frequency Range = 0.1MHz-250MHz
*   Ambient Temperature = 25 degC
*   Inductor Frequency Model
*   Use model for Frequency Domain simulations
*======================================================================
.subckt MSS1260H-682_freq port1 port2 PARAMS: Cpar=4.3pF Ind=6.8uH
X1 port1 port2 Model1A PARAMS:
+ R1=6
+ R2=0.0134
+ C= {Cpar}
+ K1=0.000001
+ K2=1.6
+ K3= {Ind}
+ K4=0.000001
+ K5=0.000001
+ L=0
+ Is=0
+ a=0
+ L_Z0=0
+ L_EL=0
+ L_F0=0E6
+ PkZ=8403.33345
.ends MSS1260H-682_freq

*======================================================================
* SPICE Model generated by Coilcraft
* Coilcraft Part Number : MSS1260H-682
* Inductance = 6.8uH
*======================================================================
* Model Parameters:
*   Valid Frequency Range = 0.1MHz-250MHz
*   Ambient Temperature = 25 degC
*   Inductor Impedance Model
*   Use model for Time Domain simulations
*======================================================================
.subckt MSS1260H-682_imp port1 port2 PARAMS: Cpar=4.3pF Ind=6.8uH
X1 port1 port2 Model1D PARAMS:
+ R1=6
+ R2=0.0134
+ C= {Cpar}
+ K1=0.000001
+ K2=1.6
+ K3= {Ind}
+ K4=0.000001
+ K5=0.000001
+ L=0
+ Is=0
+ a=0
+ L_Z0=0
+ L_EL=0
+ L_F0=0E6
+ PkZ=8403.33345
.ends MSS1260H-682_imp

*======================================================================
* SPICE Model generated by Coilcraft
* Coilcraft Part Number : MSS1260H-822
* Inductance = 8.2uH
*======================================================================
* Model Parameters:
*   Valid Frequency Range = 0.1MHz-100MHz
*   Ambient Temperature = 25 degC
*   Inductor Frequency Model
*   Use model for Frequency Domain simulations
*======================================================================
.subckt MSS1260H-822_freq port1 port2 PARAMS: Cpar=4.4pF Ind=8.2uH
X1 port1 port2 Model1A PARAMS:
+ R1=3
+ R2=0.017
+ C= {Cpar}
+ K1=0.000001
+ K2=1.9
+ K3= {Ind}
+ K4=0.000001
+ K5=0.000001
+ L=0
+ Is=0
+ a=0
+ L_Z0=0
+ L_EL=0
+ L_F0=0E6
+ PkZ=9628.35693
.ends MSS1260H-822_freq

*======================================================================
* SPICE Model generated by Coilcraft
* Coilcraft Part Number : MSS1260H-822
* Inductance = 8.2uH
*======================================================================
* Model Parameters:
*   Valid Frequency Range = 0.1MHz-100MHz
*   Ambient Temperature = 25 degC
*   Inductor Impedance Model
*   Use model for Time Domain simulations
*======================================================================
.subckt MSS1260H-822_imp port1 port2 PARAMS: Cpar=4.4pF Ind=8.2uH
X1 port1 port2 Model1D PARAMS:
+ R1=3
+ R2=0.017
+ C= {Cpar}
+ K1=0.000001
+ K2=1.9
+ K3= {Ind}
+ K4=0.000001
+ K5=0.000001
+ L=0
+ Is=0
+ a=0
+ L_Z0=0
+ L_EL=0
+ L_F0=0E6
+ PkZ=9628.35693
.ends MSS1260H-822_imp

*======================================================================
* SPICE Model generated by Coilcraft
* Coilcraft Part Number : MSS1260H-103
* Inductance = 10uH
*======================================================================
* Model Parameters:
*   Valid Frequency Range = 0.1MHz-100MHz
*   Ambient Temperature = 25 degC
*   Inductor Frequency Model
*   Use model for Frequency Domain simulations
*======================================================================
.subckt MSS1260H-103_freq port1 port2 PARAMS: Cpar=4.6pF Ind=10uH
X1 port1 port2 Model1A PARAMS:
+ R1=2
+ R2=0.0193
+ C= {Cpar}
+ K1=0.000001
+ K2=2.3
+ K3= {Ind}
+ K4=0.000001
+ K5=0.000001
+ L=0
+ Is=0
+ a=0
+ L_Z0=0
+ L_EL=0
+ L_F0=0E6
+ PkZ=11028.3258
.ends MSS1260H-103_freq

*======================================================================
* SPICE Model generated by Coilcraft
* Coilcraft Part Number : MSS1260H-103
* Inductance = 10uH
*======================================================================
* Model Parameters:
*   Valid Frequency Range = 0.1MHz-100MHz
*   Ambient Temperature = 25 degC
*   Inductor Impedance Model
*   Use model for Time Domain simulations
*======================================================================
.subckt MSS1260H-103_imp port1 port2 PARAMS: Cpar=4.6pF Ind=10uH
X1 port1 port2 Model1D PARAMS:
+ R1=2
+ R2=0.0193
+ C= {Cpar}
+ K1=0.000001
+ K2=2.3
+ K3= {Ind}
+ K4=0.000001
+ K5=0.000001
+ L=0
+ Is=0
+ a=0
+ L_Z0=0
+ L_EL=0
+ L_F0=0E6
+ PkZ=11028.3258
.ends MSS1260H-103_imp

*======================================================================
* SPICE Model generated by Coilcraft
* Coilcraft Part Number : MSS1260H-123
* Inductance = 12uH
*======================================================================
* Model Parameters:
*   Valid Frequency Range = 0.1MHz-100MHz
*   Ambient Temperature = 25 degC
*   Inductor Frequency Model
*   Use model for Frequency Domain simulations
*======================================================================
.subckt MSS1260H-123_freq port1 port2 PARAMS: Cpar=4.3pF Ind=12uH
X1 port1 port2 Model1A PARAMS:
+ R1=2
+ R2=0.0213
+ C= {Cpar}
+ K1=0.000001
+ K2=2.7
+ K3= {Ind}
+ K4=0.000001
+ K5=0.000001
+ L=0
+ Is=0
+ a=0
+ L_Z0=0
+ L_EL=0
+ L_F0=0E6
+ PkZ=12594.0452
.ends MSS1260H-123_freq

*======================================================================
* SPICE Model generated by Coilcraft
* Coilcraft Part Number : MSS1260H-123
* Inductance = 12uH
*======================================================================
* Model Parameters:
*   Valid Frequency Range = 0.1MHz-100MHz
*   Ambient Temperature = 25 degC
*   Inductor Impedance Model
*   Use model for Time Domain simulations
*======================================================================
.subckt MSS1260H-123_imp port1 port2 PARAMS: Cpar=4.3pF Ind=12uH
X1 port1 port2 Model1D PARAMS:
+ R1=2
+ R2=0.0213
+ C= {Cpar}
+ K1=0.000001
+ K2=2.7
+ K3= {Ind}
+ K4=0.000001
+ K5=0.000001
+ L=0
+ Is=0
+ a=0
+ L_Z0=0
+ L_EL=0
+ L_F0=0E6
+ PkZ=12594.0452
.ends MSS1260H-123_imp

*======================================================================
* SPICE Model generated by Coilcraft
* Coilcraft Part Number : MSS1260H-153
* Inductance = 15uH
*======================================================================
* Model Parameters:
*   Valid Frequency Range = 0.1MHz-100MHz
*   Ambient Temperature = 25 degC
*   Inductor Frequency Model
*   Use model for Frequency Domain simulations
*======================================================================
.subckt MSS1260H-153_freq port1 port2 PARAMS: Cpar=4.7pF Ind=15uH
X1 port1 port2 Model1A PARAMS:
+ R1=2
+ R2=0.0279
+ C= {Cpar}
+ K1=0.000001
+ K2=3.2
+ K3= {Ind}
+ K4=0.000001
+ K5=0.000001
+ L=0
+ Is=0
+ a=0
+ L_Z0=0
+ L_EL=0
+ L_F0=0E6
+ PkZ=13811.1628
.ends MSS1260H-153_freq

*======================================================================
* SPICE Model generated by Coilcraft
* Coilcraft Part Number : MSS1260H-153
* Inductance = 15uH
*======================================================================
* Model Parameters:
*   Valid Frequency Range = 0.1MHz-100MHz
*   Ambient Temperature = 25 degC
*   Inductor Impedance Model
*   Use model for Time Domain simulations
*======================================================================
.subckt MSS1260H-153_imp port1 port2 PARAMS: Cpar=4.7pF Ind=15uH
X1 port1 port2 Model1D PARAMS:
+ R1=2
+ R2=0.0279
+ C= {Cpar}
+ K1=0.000001
+ K2=3.2
+ K3= {Ind}
+ K4=0.000001
+ K5=0.000001
+ L=0
+ Is=0
+ a=0
+ L_Z0=0
+ L_EL=0
+ L_F0=0E6
+ PkZ=13811.1628
.ends MSS1260H-153_imp

*======================================================================
* SPICE Model generated by Coilcraft
* Coilcraft Part Number : MSS1260H-183
* Inductance = 18uH
*======================================================================
* Model Parameters:
*   Valid Frequency Range = 0.1MHz-100MHz
*   Ambient Temperature = 25 degC
*   Inductor Frequency Model
*   Use model for Frequency Domain simulations
*======================================================================
.subckt MSS1260H-183_freq port1 port2 PARAMS: Cpar=4.6pF Ind=18uH
X1 port1 port2 Model1A PARAMS:
+ R1=2
+ R2=0.0302
+ C= {Cpar}
+ K1=0.0009
+ K2=4.1
+ K3= {Ind}
+ K4=0.000001
+ K5=0.000001
+ L=0
+ Is=0
+ a=0
+ L_Z0=0
+ L_EL=0
+ L_F0=0E6
+ PkZ=16724.539
.ends MSS1260H-183_freq

*======================================================================
* SPICE Model generated by Coilcraft
* Coilcraft Part Number : MSS1260H-183
* Inductance = 18uH
*======================================================================
* Model Parameters:
*   Valid Frequency Range = 0.1MHz-100MHz
*   Ambient Temperature = 25 degC
*   Inductor Impedance Model
*   Use model for Time Domain simulations
*======================================================================
.subckt MSS1260H-183_imp port1 port2 PARAMS: Cpar=4.6pF Ind=18uH
X1 port1 port2 Model1D PARAMS:
+ R1=2
+ R2=0.0302
+ C= {Cpar}
+ K1=0.0009
+ K2=4.1
+ K3= {Ind}
+ K4=0.000001
+ K5=0.000001
+ L=0
+ Is=0
+ a=0
+ L_Z0=0
+ L_EL=0
+ L_F0=0E6
+ PkZ=16724.539
.ends MSS1260H-183_imp

*======================================================================
* SPICE Model generated by Coilcraft
* Coilcraft Part Number : MSS1260H-223
* Inductance = 22uH
*======================================================================
* Model Parameters:
*   Valid Frequency Range = 0.1MHz-100MHz
*   Ambient Temperature = 25 degC
*   Inductor Frequency Model
*   Use model for Frequency Domain simulations
*======================================================================
.subckt MSS1260H-223_freq port1 port2 PARAMS: Cpar=5.4pF Ind=22uH
X1 port1 port2 Model1A PARAMS:
+ R1=3
+ R2=0.0415
+ C= {Cpar}
+ K1=0.0012
+ K2=5.3
+ K3= {Ind}
+ K4=0.000001
+ K5=0.000001
+ L=0
+ Is=0
+ a=0
+ L_Z0=0
+ L_EL=0
+ L_F0=0E6
+ PkZ=19516.7507
.ends MSS1260H-223_freq

*======================================================================
* SPICE Model generated by Coilcraft
* Coilcraft Part Number : MSS1260H-223
* Inductance = 22uH
*======================================================================
* Model Parameters:
*   Valid Frequency Range = 0.1MHz-100MHz
*   Ambient Temperature = 25 degC
*   Inductor Impedance Model
*   Use model for Time Domain simulations
*======================================================================
.subckt MSS1260H-223_imp port1 port2 PARAMS: Cpar=5.4pF Ind=22uH
X1 port1 port2 Model1D PARAMS:
+ R1=3
+ R2=0.0415
+ C= {Cpar}
+ K1=0.0012
+ K2=5.3
+ K3= {Ind}
+ K4=0.000001
+ K5=0.000001
+ L=0
+ Is=0
+ a=0
+ L_Z0=0
+ L_EL=0
+ L_F0=0E6
+ PkZ=19516.7507
.ends MSS1260H-223_imp

*======================================================================
* SPICE Model generated by Coilcraft
* Coilcraft Part Number : MSS1260H-273
* Inductance = 27uH
*======================================================================
* Model Parameters:
*   Valid Frequency Range = 0.1MHz-100MHz
*   Ambient Temperature = 25 degC
*   Inductor Frequency Model
*   Use model for Frequency Domain simulations
*======================================================================
.subckt MSS1260H-273_freq port1 port2 PARAMS: Cpar=5.5pF Ind=27uH
X1 port1 port2 Model1A PARAMS:
+ R1=4
+ R2=0.0457
+ C= {Cpar}
+ K1=0.002
+ K2=5.9
+ K3= {Ind}
+ K4=0.000001
+ K5=0.000001
+ L=0
+ Is=0
+ a=0
+ L_Z0=0
+ L_EL=0
+ L_F0=0E6
+ PkZ=20330.7134
.ends MSS1260H-273_freq

*======================================================================
* SPICE Model generated by Coilcraft
* Coilcraft Part Number : MSS1260H-273
* Inductance = 27uH
*======================================================================
* Model Parameters:
*   Valid Frequency Range = 0.1MHz-100MHz
*   Ambient Temperature = 25 degC
*   Inductor Impedance Model
*   Use model for Time Domain simulations
*======================================================================
.subckt MSS1260H-273_imp port1 port2 PARAMS: Cpar=5.5pF Ind=27uH
X1 port1 port2 Model1D PARAMS:
+ R1=4
+ R2=0.0457
+ C= {Cpar}
+ K1=0.002
+ K2=5.9
+ K3= {Ind}
+ K4=0.000001
+ K5=0.000001
+ L=0
+ Is=0
+ a=0
+ L_Z0=0
+ L_EL=0
+ L_F0=0E6
+ PkZ=20330.7134
.ends MSS1260H-273_imp

*======================================================================
* SPICE Model generated by Coilcraft
* Coilcraft Part Number : MSS1260H-333
* Inductance = 33uH
*======================================================================
* Model Parameters:
*   Valid Frequency Range = 0.1MHz-100MHz
*   Ambient Temperature = 25 degC
*   Inductor Frequency Model
*   Use model for Frequency Domain simulations
*======================================================================
.subckt MSS1260H-333_freq port1 port2 PARAMS: Cpar=6.5pF Ind=33uH
X1 port1 port2 Model1A PARAMS:
+ R1=4
+ R2=0.0504
+ C= {Cpar}
+ K1=0.000001
+ K2=14
+ K3= {Ind}
+ K4=0.000001
+ K5=0.000001
+ L=0
+ Is=0
+ a=0
+ L_Z0=0
+ L_EL=0
+ L_F0=0E6
+ PkZ=44530.5473
.ends MSS1260H-333_freq

*======================================================================
* SPICE Model generated by Coilcraft
* Coilcraft Part Number : MSS1260H-333
* Inductance = 33uH
*======================================================================
* Model Parameters:
*   Valid Frequency Range = 0.1MHz-100MHz
*   Ambient Temperature = 25 degC
*   Inductor Impedance Model
*   Use model for Time Domain simulations
*======================================================================
.subckt MSS1260H-333_imp port1 port2 PARAMS: Cpar=6.5pF Ind=33uH
X1 port1 port2 Model1D PARAMS:
+ R1=4
+ R2=0.0504
+ C= {Cpar}
+ K1=0.000001
+ K2=14
+ K3= {Ind}
+ K4=0.000001
+ K5=0.000001
+ L=0
+ Is=0
+ a=0
+ L_Z0=0
+ L_EL=0
+ L_F0=0E6
+ PkZ=44530.5473
.ends MSS1260H-333_imp

*======================================================================
* SPICE Model generated by Coilcraft
* Coilcraft Part Number : MSS1260H-393
* Inductance = 39uH
*======================================================================
* Model Parameters:
*   Valid Frequency Range = 0.1MHz-100MHz
*   Ambient Temperature = 25 degC
*   Inductor Frequency Model
*   Use model for Frequency Domain simulations
*======================================================================
.subckt MSS1260H-393_freq port1 port2 PARAMS: Cpar=5.5pF Ind=39uH
X1 port1 port2 Model1A PARAMS:
+ R1=4
+ R2=0.0504
+ C= {Cpar}
+ K1=0.0016
+ K2=8.6
+ K3= {Ind}
+ K4=0.000001
+ K5=0.000001
+ L=0
+ Is=0
+ a=0
+ L_Z0=0
+ L_EL=0
+ L_F0=0E6
+ PkZ=27336.3442
.ends MSS1260H-393_freq

*======================================================================
* SPICE Model generated by Coilcraft
* Coilcraft Part Number : MSS1260H-393
* Inductance = 39uH
*======================================================================
* Model Parameters:
*   Valid Frequency Range = 0.1MHz-100MHz
*   Ambient Temperature = 25 degC
*   Inductor Impedance Model
*   Use model for Time Domain simulations
*======================================================================
.subckt MSS1260H-393_imp port1 port2 PARAMS: Cpar=5.5pF Ind=39uH
X1 port1 port2 Model1D PARAMS:
+ R1=4
+ R2=0.0504
+ C= {Cpar}
+ K1=0.0016
+ K2=8.6
+ K3= {Ind}
+ K4=0.000001
+ K5=0.000001
+ L=0
+ Is=0
+ a=0
+ L_Z0=0
+ L_EL=0
+ L_F0=0E6
+ PkZ=27336.3442
.ends MSS1260H-393_imp

*======================================================================
* SPICE Model generated by Coilcraft
* Coilcraft Part Number : MSS1260H-473
* Inductance = 47uH
*======================================================================
* Model Parameters:
*   Valid Frequency Range = 0.1MHz-100MHz
*   Ambient Temperature = 25 degC
*   Inductor Frequency Model
*   Use model for Frequency Domain simulations
*======================================================================
.subckt MSS1260H-473_freq port1 port2 PARAMS: Cpar=5.6pF Ind=47uH
X1 port1 port2 Model1A PARAMS:
+ R1=4
+ R2=0.0705
+ C= {Cpar}
+ K1=0.0026
+ K2=11.4
+ K3= {Ind}
+ K4=0.000001
+ K5=0.000001
+ L=0
+ Is=0
+ a=0
+ L_Z0=0
+ L_EL=0
+ L_F0=0E6
+ PkZ=33952.203
.ends MSS1260H-473_freq

*======================================================================
* SPICE Model generated by Coilcraft
* Coilcraft Part Number : MSS1260H-473
* Inductance = 47uH
*======================================================================
* Model Parameters:
*   Valid Frequency Range = 0.1MHz-100MHz
*   Ambient Temperature = 25 degC
*   Inductor Impedance Model
*   Use model for Time Domain simulations
*======================================================================
.subckt MSS1260H-473_imp port1 port2 PARAMS: Cpar=5.6pF Ind=47uH
X1 port1 port2 Model1D PARAMS:
+ R1=4
+ R2=0.0705
+ C= {Cpar}
+ K1=0.0026
+ K2=11.4
+ K3= {Ind}
+ K4=0.000001
+ K5=0.000001
+ L=0
+ Is=0
+ a=0
+ L_Z0=0
+ L_EL=0
+ L_F0=0E6
+ PkZ=33952.203
.ends MSS1260H-473_imp

*======================================================================
* SPICE Model generated by Coilcraft
* Coilcraft Part Number : MSS1260H-563
* Inductance = 56uH
*======================================================================
* Model Parameters:
*   Valid Frequency Range = 0.1MHz-50MHz
*   Ambient Temperature = 25 degC
*   Inductor Frequency Model
*   Use model for Frequency Domain simulations
*======================================================================
.subckt MSS1260H-563_freq port1 port2 PARAMS: Cpar=5.8pF Ind=56uH
X1 port1 port2 Model1A PARAMS:
+ R1=5
+ R2=0.0775
+ C= {Cpar}
+ K1=0.003
+ K2=14
+ K3= {Ind}
+ K4=0.000001
+ K5=0.000001
+ L=0
+ Is=0
+ a=0
+ L_Z0=0
+ L_EL=0
+ L_F0=0E6
+ PkZ=39250.5423
.ends MSS1260H-563_freq

*======================================================================
* SPICE Model generated by Coilcraft
* Coilcraft Part Number : MSS1260H-563
* Inductance = 56uH
*======================================================================
* Model Parameters:
*   Valid Frequency Range = 0.1MHz-50MHz
*   Ambient Temperature = 25 degC
*   Inductor Impedance Model
*   Use model for Time Domain simulations
*======================================================================
.subckt MSS1260H-563_imp port1 port2 PARAMS: Cpar=5.8pF Ind=56uH
X1 port1 port2 Model1D PARAMS:
+ R1=5
+ R2=0.0775
+ C= {Cpar}
+ K1=0.003
+ K2=14
+ K3= {Ind}
+ K4=0.000001
+ K5=0.000001
+ L=0
+ Is=0
+ a=0
+ L_Z0=0
+ L_EL=0
+ L_F0=0E6
+ PkZ=39250.5423
.ends MSS1260H-563_imp

*======================================================================
* SPICE Model generated by Coilcraft
* Coilcraft Part Number : MSS1260H-683
* Inductance = 68uH
*======================================================================
* Model Parameters:
*   Valid Frequency Range = 0.1MHz-50MHz
*   Ambient Temperature = 25 degC
*   Inductor Frequency Model
*   Use model for Frequency Domain simulations
*======================================================================
.subckt MSS1260H-683_freq port1 port2 PARAMS: Cpar=5.8pF Ind=68uH
X1 port1 port2 Model1A PARAMS:
+ R1=5
+ R2=0.1029
+ C= {Cpar}
+ K1=0.006
+ K2=21
+ K3= {Ind}
+ K4=0.000001
+ K5=0.000001
+ L=0
+ Is=0
+ a=0
+ L_Z0=0
+ L_EL=0
+ L_F0=0E6
+ PkZ=53486.5858
.ends MSS1260H-683_freq

*======================================================================
* SPICE Model generated by Coilcraft
* Coilcraft Part Number : MSS1260H-683
* Inductance = 68uH
*======================================================================
* Model Parameters:
*   Valid Frequency Range = 0.1MHz-50MHz
*   Ambient Temperature = 25 degC
*   Inductor Impedance Model
*   Use model for Time Domain simulations
*======================================================================
.subckt MSS1260H-683_imp port1 port2 PARAMS: Cpar=5.8pF Ind=68uH
X1 port1 port2 Model1D PARAMS:
+ R1=5
+ R2=0.1029
+ C= {Cpar}
+ K1=0.006
+ K2=21
+ K3= {Ind}
+ K4=0.000001
+ K5=0.000001
+ L=0
+ Is=0
+ a=0
+ L_Z0=0