*======================================================================
* SPICE Model generated by Coilcraft
* Coilcraft Part Number : SD54-103
* Inductance = 10uH
*======================================================================
* Model Parameters:
*   Valid Frequency Range = 0.1MHz-42MHz
*   Ambient Temperature = 25 degC
*   Inductor Frequency Model
*   Use model for Frequency Domain simulations
*======================================================================
.subckt SD54-103_freq port1 port2 PARAMS: Cpar=2.76pF Ind=10uH
X1 port1 port2 Model1A PARAMS:
+ R1=18.3
+ R2=71.5
+ C= {Cpar}
+ K1=0.000381
+ K2=3.5
+ K3= {Ind}
+ K4=0.29
+ K5=0.000037
+ L=0
+ Is=0
+ a=0
+ L_Z0=0
+ L_EL=0
+ L_F0=0E6
+ PkZ=17861.4895
.ends SD54-103_freq

*======================================================================
* SPICE Model generated by Coilcraft
* Coilcraft Part Number : SD54-103
* Inductance = 10uH
*======================================================================
* Model Parameters:
*   Valid Frequency Range = 0.1MHz-42MHz
*   Ambient Temperature = 25 degC
*   Inductor Impedance Model
*   Use model for Time Domain simulations
*======================================================================
.subckt SD54-103_imp port1 port2 PARAMS: Cpar=2.198pF Ind=10uH
X1 port1 port2 Model1D PARAMS:
+ R1=18.3
+ R2=71.5
+ C= {Cpar}
+ K1=0.000381
+ K2=3.5
+ K3= {Ind}
+ K4=0.29
+ K5=0.000037
+ L=0
+ Is=0
+ a=0
+ L_Z0=0
+ L_EL=0
+ L_F0=0E6
+ PkZ=17861.4895
.ends SD54-103_imp

*======================================================================
* SPICE Model generated by Coilcraft
* Coilcraft Part Number : SD54-123
* Inductance = 12uH
*======================================================================
* Model Parameters:
*   Valid Frequency Range = 0.1MHz-42MHz
*   Ambient Temperature = 25 degC
*   Inductor Frequency Model
*   Use model for Frequency Domain simulations
*======================================================================
.subckt SD54-123_freq port1 port2 PARAMS: Cpar=2.92pF Ind=12uH
X1 port1 port2 Model1A PARAMS:
+ R1=24.5
+ R2=80.2
+ C= {Cpar}
+ K1=0.000496
+ K2=4.6
+ K3= {Ind}
+ K4=0.29
+ K5=0.000037
+ L=0
+ Is=0
+ a=0
+ L_Z0=0
+ L_EL=0
+ L_F0=0E6
+ PkZ=20903.1442
.ends SD54-123_freq

*======================================================================
* SPICE Model generated by Coilcraft
* Coilcraft Part Number : SD54-123
* Inductance = 12uH
*======================================================================
* Model Parameters:
*   Valid Frequency Range = 0.1MHz-42MHz
*   Ambient Temperature = 25 degC
*   Inductor Impedance Model
*   Use model for Time Domain simulations
*======================================================================
.subckt SD54-123_imp port1 port2 PARAMS: Cpar=2.433pF Ind=12uH
X1 port1 port2 Model1D PARAMS:
+ R1=24.5
+ R2=80.2
+ C= {Cpar}
+ K1=0.000496
+ K2=4.6
+ K3= {Ind}
+ K4=0.29
+ K5=0.000037
+ L=0
+ Is=0
+ a=0
+ L_Z0=0
+ L_EL=0
+ L_F0=0E6
+ PkZ=20903.1442
.ends SD54-123_imp

*======================================================================
* SPICE Model generated by Coilcraft
* Coilcraft Part Number : SD54-153
* Inductance = 15uH
*======================================================================
* Model Parameters:
*   Valid Frequency Range = 0.1MHz-42MHz
*   Ambient Temperature = 25 degC
*   Inductor Frequency Model
*   Use model for Frequency Domain simulations
*======================================================================
.subckt SD54-153_freq port1 port2 PARAMS: Cpar=4.56pF Ind=15uH
X1 port1 port2 Model1A PARAMS:
+ R1=18.8
+ R2=94
+ C= {Cpar}
+ K1=0.00072
+ K2=5.8
+ K3= {Ind}
+ K4=0.306
+ K5=0.00019
+ L=0
+ Is=0
+ a=0
+ L_Z0=0
+ L_EL=0
+ L_F0=0E6
+ PkZ=22003.4957
.ends SD54-153_freq

*======================================================================
* SPICE Model generated by Coilcraft
* Coilcraft Part Number : SD54-153
* Inductance = 15uH
*======================================================================
* Model Parameters:
*   Valid Frequency Range = 0.1MHz-42MHz
*   Ambient Temperature = 25 degC
*   Inductor Impedance Model
*   Use model for Time Domain simulations
*======================================================================
.subckt SD54-153_imp port1 port2 PARAMS: Cpar=3.797pF Ind=15uH
X1 port1 port2 Model1D PARAMS:
+ R1=18.8
+ R2=94
+ C= {Cpar}
+ K1=0.00072
+ K2=5.8
+ K3= {Ind}
+ K4=0.306
+ K5=0.00019
+ L=0
+ Is=0
+ a=0
+ L_Z0=0
+ L_EL=0
+ L_F0=0E6
+ PkZ=22003.4957
.ends SD54-153_imp

*======================================================================
* SPICE Model generated by Coilcraft
* Coilcraft Part Number : SD54-183
* Inductance = 18uH
*======================================================================
* Model Parameters:
*   Valid Frequency Range = 0.1MHz-42MHz
*   Ambient Temperature = 25 degC
*   Inductor Frequency Model
*   Use model for Frequency Domain simulations
*======================================================================
.subckt SD54-183_freq port1 port2 PARAMS: Cpar=3.12pF Ind=18uH
X1 port1 port2 Model1A PARAMS:
+ R1=18.8
+ R2=103
+ C= {Cpar}
+ K1=0.00072
+ K2=6.68
+ K3= {Ind}
+ K4=0.306
+ K5=0.00019
+ L=0
+ Is=0
+ a=0
+ L_Z0=0
+ L_EL=0
+ L_F0=0E6
+ PkZ=28059.1684
.ends SD54-183_freq

*======================================================================
* SPICE Model generated by Coilcraft
* Coilcraft Part Number : SD54-183
* Inductance = 18uH
*======================================================================
* Model Parameters:
*   Valid Frequency Range = 0.1MHz-42MHz
*   Ambient Temperature = 25 degC
*   Inductor Impedance Model
*   Use model for Time Domain simulations
*======================================================================
.subckt SD54-183_imp port1 port2 PARAMS: Cpar=2.68pF Ind=18uH
X1 port1 port2 Model1D PARAMS:
+ R1=18.8
+ R2=103
+ C= {Cpar}
+ K1=0.00072
+ K2=6.68
+ K3= {Ind}
+ K4=0.306
+ K5=0.00019
+ L=0
+ Is=0
+ a=0
+ L_Z0=0
+ L_EL=0
+ L_F0=0E6
+ PkZ=28059.1684
.ends SD54-183_imp

*======================================================================
* SPICE Model generated by Coilcraft
* Coilcraft Part Number : SD54-223
* Inductance = 22uH
*======================================================================
* Model Parameters:
*   Valid Frequency Range = 0.1MHz-42MHz
*   Ambient Temperature = 25 degC
*   Inductor Frequency Model
*   Use model for Frequency Domain simulations
*======================================================================
.subckt SD54-223_freq port1 port2 PARAMS: Cpar=3.46pF Ind=22uH
X1 port1 port2 Model1A PARAMS:
+ R1=17.4
+ R2=119
+ C= {Cpar}
+ K1=0.00093
+ K2=8.18
+ K3= {Ind}
+ K4=0.306
+ K5=0.00000983
+ L=0
+ Is=0
+ a=0
+ L_Z0=0
+ L_EL=0
+ L_F0=0E6
+ PkZ=31636.1636
.ends SD54-223_freq

*======================================================================
* SPICE Model generated by Coilcraft
* Coilcraft Part Number : SD54-223
* Inductance = 22uH
*======================================================================
* Model Parameters:
*   Valid Frequency Range = 0.1MHz-42MHz
*   Ambient Temperature = 25 degC
*   Inductor Impedance Model
*   Use model for Time Domain simulations
*======================================================================
.subckt SD54-223_imp port1 port2 PARAMS: Cpar=3.21pF Ind=22uH
X1 port1 port2 Model1D PARAMS:
+ R1=17.4
+ R2=119
+ C= {Cpar}
+ K1=0.00093
+ K2=8.18
+ K3= {Ind}
+ K4=0.306
+ K5=0.00000983
+ L=0
+ Is=0
+ a=0
+ L_Z0=0
+ L_EL=0
+ L_F0=0E6
+ PkZ=31636.1636
.ends SD54-223_imp

*======================================================================
* SPICE Model generated by Coilcraft
* Coilcraft Part Number : SD54-273
* Inductance = 27uH
*======================================================================
* Model Parameters:
*   Valid Frequency Range = 0.1MHz-42MHz
*   Ambient Temperature = 25 degC
*   Inductor Frequency Model
*   Use model for Frequency Domain simulations
*======================================================================
.subckt SD54-273_freq port1 port2 PARAMS: Cpar=4.06pF Ind=27uH
X1 port1 port2 Model1A PARAMS:
+ R1=12.2
+ R2=134
+ C= {Cpar}
+ K1=0.00121
+ K2=9.68
+ K3= {Ind}
+ K4=0.502
+ K5=0.00000983
+ L=0
+ Is=0
+ a=0
+ L_Z0=0
+ L_EL=0
+ L_F0=0E6
+ PkZ=34994.2547
.ends SD54-273_freq

*======================================================================
* SPICE Model generated by Coilcraft
* Coilcraft Part Number : SD54-273
* Inductance = 27uH
*======================================================================
* Model Parameters:
*   Valid Frequency Range = 0.1MHz-42MHz
*   Ambient Temperature = 25 degC
*   Inductor Impedance Model
*   Use model for Time Domain simulations
*======================================================================
.subckt SD54-273_imp port1 port2 PARAMS: Cpar=3.682pF Ind=27uH
X1 port1 port2 Model1D PARAMS:
+ R1=12.2
+ R2=134
+ C= {Cpar}
+ K1=0.00121
+ K2=9.68
+ K3= {Ind}
+ K4=0.502
+ K5=0.00000983
+ L=0
+ Is=0
+ a=0
+ L_Z0=0
+ L_EL=0
+ L_F0=0E6
+ PkZ=34994.2547
.ends SD54-273_imp

*======================================================================
* SPICE Model generated by Coilcraft
* Coilcraft Part Number : SD54-333
* Inductance = 33uH
*======================================================================
* Model Parameters:
*   Valid Frequency Range = 0.1MHz-42MHz
*   Ambient Temperature = 25 degC
*   Inductor Frequency Model
*   Use model for Frequency Domain simulations
*======================================================================
.subckt SD54-333_freq port1 port2 PARAMS: Cpar=3.28pF Ind=33uH
X1 port1 port2 Model1A PARAMS:
+ R1=10.2
+ R2=150
+ C= {Cpar}
+ K1=0.00148
+ K2=11.6
+ K3= {Ind}
+ K4=0.502
+ K5=0.000064
+ L=0
+ Is=0
+ a=0
+ L_Z0=0
+ L_EL=0
+ L_F0=0E6
+ PkZ=43186.654
.ends SD54-333_freq

*======================================================================
* SPICE Model generated by Coilcraft
* Coilcraft Part Number : SD54-333
* Inductance = 33uH
*======================================================================
* Model Parameters:
*   Valid Frequency Range = 0.1MHz-42MHz
*   Ambient Temperature = 25 degC
*   Inductor Impedance Model
*   Use model for Time Domain simulations
*======================================================================
.subckt SD54-333_imp port1 port2 PARAMS: Cpar=2.936pF Ind=33uH
X1 port1 port2 Model1D PARAMS:
+ R1=10.2
+ R2=150
+ C= {Cpar}
+ K1=0.00148
+ K2=11.6
+ K3= {Ind}
+ K4=0.502
+ K5=0.000064
+ L=0
+ Is=0
+ a=0
+ L_Z0=0
+ L_EL=0
+ L_F0=0E6
+ PkZ=43186.654
.ends SD54-333_imp

*======================================================================
* SPICE Model generated by Coilcraft
* Coilcraft Part Number : SD54-393
* Inductance = 39uH
*======================================================================
* Model Parameters:
*   Valid Frequency Range = 0.1MHz-42MHz
*   Ambient Temperature = 25 degC
*   Inductor Frequency Model
*   Use model for Frequency Domain simulations
*======================================================================
.subckt SD54-393_freq port1 port2 PARAMS: Cpar=3.61pF Ind=39uH
X1 port1 port2 Model1A PARAMS:
+ R1=10.9
+ R2=195
+ C= {Cpar}
+ K1=0.00168
+ K2=14.4
+ K3= {Ind}
+ K4=0.502
+ K5=0.000064
+ L=0
+ Is=0
+ a=0
+ L_Z0=0
+ L_EL=0
+ L_F0=0E6
+ PkZ=49504.4922
.ends SD54-393_freq

*======================================================================
* SPICE Model generated by Coilcraft
* Coilcraft Part Number : SD54-393
* Inductance = 39uH
*======================================================================
* Model Parameters:
*   Valid Frequency Range = 0.1MHz-42MHz
*   Ambient Temperature = 25 degC
*   Inductor Impedance Model
*   Use model for Time Domain simulations
*======================================================================
.subckt SD54-393_imp port1 port2 PARAMS: Cpar=3.296pF Ind=39uH
X1 port1 port2 Model1D PARAMS:
+ R1=10.9
+ R2=195
+ C= {Cpar}
+ K1=0.00168
+ K2=14.4
+ K3= {Ind}
+ K4=0.502
+ K5=0.000064
+ L=0
+ Is=0
+ a=0
+ L_Z0=0
+ L_EL=0
+ L_F0=0E6
+ PkZ=49504.4922
.ends SD54-393_imp

*======================================================================
* SPICE Model generated by Coilcraft
* Coilcraft Part Number : SD54-473
* Inductance = 47uH
*======================================================================
* Model Parameters:
*   Valid Frequency Range = 0.1MHz-42MHz
*   Ambient Temperature = 25 degC
*   Inductor Frequency Model
*   Use model for Frequency Domain simulations
*======================================================================
.subckt SD54-473_freq port1 port2 PARAMS: Cpar=4.11pF Ind=47uH
X1 port1 port2 Model1A PARAMS:
+ R1=16
+ R2=222
+ C= {Cpar}
+ K1=0.00168
+ K2=15
+ K3= {Ind}
+ K4=0.362
+ K5=0.0361
+ L=0
+ Is=0
+ a=0
+ L_Z0=0
+ L_EL=0
+ L_F0=0E6
+ PkZ=47142.9115
.ends SD54-473_freq

*======================================================================
* SPICE Model generated by Coilcraft
* Coilcraft Part Number : SD54-473
* Inductance = 47uH
*======================================================================
* Model Parameters:
*   Valid Frequency Range = 0.1MHz-42MHz
*   Ambient Temperature = 25 degC
*   Inductor Impedance Model
*   Use model for Time Domain simulations
*======================================================================
.subckt SD54-473_imp port1 port2 PARAMS: Cpar=3.701pF Ind=47uH
X1 port1 port2 Model1D PARAMS:
+ R1=16
+ R2=222
+ C= {Cpar}
+ K1=0.00168
+ K2=15
+ K3= {Ind}
+ K4=0.362
+ K5=0.0361
+ L=0
+ Is=0
+ a=0
+ L_Z0=0
+ L_EL=0
+ L_F0=0E6
+ PkZ=47142.9115
.ends SD54-473_imp

*======================================================================
* SPICE Model generated by Coilcraft
* Coilcraft Part Number : SD54-563
* Inductance = 56uH
*======================================================================
* Model Parameters:
*   Valid Frequency Range = 0.1MHz-42MHz
*   Ambient Temperature = 25 degC
*   Inductor Frequency Model
*   Use model for Frequency Domain simulations
*======================================================================
.subckt SD54-563_freq port1 port2 PARAMS: Cpar=4.17pF Ind=56uH
X1 port1 port2 Model1A PARAMS:
+ R1=13.4
+ R2=251
+ C= {Cpar}
+ K1=0.00236
+ K2=19.4
+ K3= {Ind}
+ K4=0.362
+ K5=0.0361
+ L=0
+ Is=0
+ a=0
+ L_Z0=0
+ L_EL=0
+ L_F0=0E6
+ PkZ=57884.9619
.ends SD54-563_freq

*======================================================================
* SPICE Model generated by Coilcraft
* Coilcraft Part Number : SD54-563
* Inductance = 56uH
*======================================================================
* Model Parameters:
*   Valid Frequency Range = 0.1MHz-42MHz
*   Ambient Temperature = 25 degC
*   Inductor Impedance Model
*   Use model for Time Domain simulations
*======================================================================
.subckt SD54-563_imp port1 port2 PARAMS: Cpar=3.824pF Ind=56uH
X1 port1 port2 Model1D PARAMS:
+ R1=13.4
+ R2=251
+ C= {Cpar}
+ K1=0.00236
+ K2=19.4
+ K3= {Ind}
+ K4=0.362
+ K5=0.0361
+ L=0
+ Is=0
+ a=0
+ L_Z0=0
+ L_EL=0
+ L_F0=0E6
+ PkZ=57884.9619
.ends SD54-563_imp

*======================================================================
* SPICE Model generated by Coilcraft
* Coilcraft Part Number : SD54-683
* Inductance = 68uH
*======================================================================
* Model Parameters:
*   Valid Frequency Range = 0.1MHz-42MHz
*   Ambient Temperature = 25 degC
*   Inductor Frequency Model
*   Use model for Frequency Domain simulations
*======================================================================
.subckt SD54-683_freq port1 port2 PARAMS: Cpar=4.65pF Ind=68uH
X1 port1 port2 Model1A PARAMS:
+ R1=13.2
+ R2=335
+ C= {Cpar}
+ K1=0.00236
+ K2=22.7
+ K3= {Ind}
+ K4=0.362
+ K5=0.0361
+ L=0
+ Is=0
+ a=0
+ L_Z0=0
+ L_EL=0
+ L_F0=0E6
+ PkZ=62971.8746
.ends SD54-683_freq

*======================================================================
* SPICE Model generated by Coilcraft
* Coilcraft Part Number : SD54-683
* Inductance = 68uH
*======================================================================
* Model Parameters:
*   Valid Frequency Range = 0.1MHz-42MHz
*   Ambient Temperature = 25 degC
*   Inductor Impedance Model
*   Use model for Time Domain simulations
*======================================================================
.subckt SD54-683_imp port1 port2 PARAMS: Cpar=4.336pF Ind=68uH
X1 port1 port2 Model1D PARAMS:
+ R1=13.2
+ R2=335
+ C= {Cpar}
+ K1=0.00236
+ K2=22.7
+ K3= {Ind}
+ K4=0.362
+ K5=0.0361
+ L=0
+ Is=0
+ a=0
+ L_Z0=0
+ L_EL=0
+ L_F0=0E6
+ PkZ=62971.8746
.ends SD54-683_imp

*======================================================================
* SPICE Model generated by Coilcraft
* Coilcraft Part Number : SD54-823
* Inductance = 82uH
*======================================================================
* Model Parameters:
*   Valid Frequency Range = 0.1MHz-42MHz
*   Ambient Temperature = 25 degC
*   Inductor Frequency Model
*   Use model for Frequency Domain simulations
*======================================================================
.subckt SD54-823_freq port1 port2 PARAMS: Cpar=4.77pF Ind=82uH
X1 port1 port2 Model1A PARAMS:
+ R1=12.7
+ R2=379
+ C= {Cpar}
+ K1=0.00329
+ K2=25.4
+ K3= {Ind}
+ K4=0.362
+ K5=0.0361
+ L=0
+ Is=0
+ a=0
+ L_Z0=0
+ L_EL=0
+ L_F0=0E6
+ PkZ=66837.1564
.ends SD54-823_freq

*======================================================================
* SPICE Model generated by Coilcraft
* Coilcraft Part Number : SD54-823
* Inductance = 82uH
*======================================================================
* Model Parameters:
*   Valid Frequency Range = 0.1MHz-42MHz
*   Ambient Temperature = 25 degC
*   Inductor Impedance Model
*   Use model for Time Domain simulations
*======================================================================
.subckt SD54-823_imp port1 port2 PARAMS: Cpar=4.505pF Ind=82uH
X1 port1 port2 Model1D PARAMS:
+ R1=12.7
+ R2=379
+ C= {Cpar}
+ K1=0.00329
+ K2=25.4
+ K3= {Ind}
+ K4=0.362
+ K5=0.0361
+ L=0
+ Is=0
+ a=0
+ L_Z0=0
+ L_EL=0
+ L_F0=0E6
+ PkZ=66837.1564
.ends SD54-823_imp

*======================================================================
* SPICE Model generated by Coilcraft
* Coilcraft Part Number : SD54-104
* Inductance = 100uH
*======================================================================
* Model Parameters:
*   Valid Frequency Range = 0.1MHz-42MHz
*   Ambient Temperature = 25 degC
*   Inductor Frequency Model
*   Use model for Frequency Domain simulations
*======================================================================
.subckt SD54-104_freq port1 port2 PARAMS: Cpar=4.65pF Ind=100uH
X1 port1 port2 Model1A PARAMS:
+ R1=10.8
+ R2=503
+ C= {Cpar}
+ K1=0.00381
+ K2=32.3
+ K3= {Ind}
+ K4=0.362
+ K5=0.0361
+ L=0
+ Is=0
+ a=0
+ L_Z0=0
+ L_EL=0
+ L_F0=0E6
+ PkZ=81797.6956
.ends SD54-104_freq

*======================================================================
* SPICE Model generated by Coilcraft
* Coilcraft Part Number : SD54-104
* Inductance = 100uH
*======================================================================
* Model Parameters:
*   Valid Frequency Range = 0.1MHz-42MHz
*   Ambient Temperature = 25 degC
*   Inductor Impedance Model
*   Use model for Time Domain simulations
*======================================================================
.subckt SD54-104_imp port1 port2 PARAMS: Cpar=4.44pF Ind=100uH
X1 port1 port2 Model1D PARAMS:
+ R1=10.8
+ R2=503
+ C= {Cpar}
+ K1=0.00381
+ K2=32.3
+ K3= {Ind}
+ K4=0.362
+ K5=0.0361
+ L=0
+ Is=0
+ a=0
+ L_Z0=0
+ L_EL=0
+ L_F0=0E6
+ PkZ=81797.6956
.ends SD54-104_imp

*======================================================================
* SPICE Model generated by Coilcraft
* Coilcraft Part Number : SD54-124
* Inductance = 120uH
*======================================================================
* Model Parameters:
*   Valid Frequency Range = 0.1MHz-42MHz
*   Ambient Temperature = 25 degC
*   Inductor Frequency Model
*   Use model for Frequency Domain simulations
*======================================================================
.subckt SD54-124_freq port1 port2 PARAMS: Cpar=4.19pF Ind=120uH
X1 port1 port2 Model1A PARAMS:
+ R1=13.8
+ R2=579
+ C= {Cpar}
+ K1=0.00461
+ K2=37.7
+ K3= {Ind}
+ K4=0.181
+ K5=0.0361
+ L=0
+ Is=0
+ a=0
+ L_Z0=0
+ L_EL=0
+ L_F0=0E6
+ PkZ=92834.9757
.ends SD54-124_freq

*======================================================================
* SPICE Model generated by Coilcraft
* Coilcraft Part Number : SD54-124
* Inductance = 120uH
*======================================================================
* Model Parameters:
*   Valid Frequency Range = 0.1MHz-42MHz
*   Ambient Temperature = 25 degC
*   Inductor Impedance Model
*   Use model for Time Domain simulations
*======================================================================
.subckt SD54-124_imp port1 port2 PARAMS: Cpar=4.111pF Ind=120uH
X1 port1 port2 Model1D PARAMS:
+ R1=13.8
+ R2=579
+ C= {Cpar}
+ K1=0.00461
+ K2=37.7
+ K3= {Ind}
+ K4=0.181
+ K5=0.0361
+ L=0
+ Is=0
+ a=0
+ L_Z0=0
+ L_EL=0
+ L_F0=0E6
+ PkZ=92834.9757
.ends SD54-124_imp

*======================================================================
* SPICE Model generated by Coilcraft
* Coilcraft Part Number : SD54-154
* Inductance = 150uH
*======================================================================
* Model Parameters:
*   Valid Frequency Range = 0.1MHz-42MHz
*   Ambient Temperature = 25 degC
*   Inductor Frequency Model
*   Use model for Frequency Domain simulations
*======================================================================
.subckt SD54-154_freq port1 port2 PARAMS: Cpar=4.31pF Ind=150uH
X1 port1 port2 Model1A PARAMS:
+ R1=16.2
+ R2=654
+ C= {Cpar}
+ K1=0.00605
+ K2=40.7
+ K3= {Ind}
+ K4=0.6
+ K5=0.5
+ L=0
+ Is=0
+ a=0
+ L_Z0=0
+ L_EL=0
+ L_F0=0E6
+ PkZ=94680.3109
.ends SD54-154_freq

*======================================================================
* SPICE Model generated by Coilcraft
* Coilcraft Part Number : SD54-154
* Inductance = 150uH
*======================================================================
* Model Parameters:
*   Valid Frequency Range = 0.1MHz-42MHz
*   Ambient Temperature = 25 degC
*   Inductor Impedance Model
*   Use model for Time Domain simulations
*======================================================================
.subckt SD54-154_imp port1 port2 PARAMS: Cpar=4.052pF Ind=150uH
X1 port1 port2 Model1D PARAMS:
+ R1=16.2
+ R2=654
+ C= {Cpar}
+ K1=0.00605
+ K2=40.7
+ K3= {Ind}
+ K4=0.6
+ K5=0.5
+ L=0
+ Is=0
+ a=0
+ L_Z0=0
+ L_EL=0
+ L_F0=0E6
+ PkZ=94680.3109
.ends SD54-154_imp

*======================================================================
* SPICE Model generated by Coilcraft
* Coilcraft Part Number : SD54-184
* Inductance = 180uH
*======================================================================
* Model Parameters:
*   Valid Frequency Range = 0.1MHz-42MHz
*   Ambient Temperature = 25 degC
*   Inductor Frequency Model
*   Use model for Frequency Domain simulations
*======================================================================
.subckt SD54-184_freq port1 port2 PARAMS: Cpar=4.79pF Ind=180uH
X1 port1 port2 Model1A PARAMS:
+ R1=17
+ R2=874
+ C= {Cpar}
+ K1=0.00605
+ K2=51.5
+ K3= {Ind}
+ K4=0.6
+ K5=0.5
+ L=0
+ Is=0
+ a=0
+ L_Z0=0
+ L_EL=0
+ L_F0=0E6
+ PkZ=110634.788
.ends SD54-184_freq

*======================================================================
* SPICE Model generated by Coilcraft
* Coilcraft Part Number : SD54-184
* Inductance = 180uH
*======================================================================
* Model Parameters:
*   Valid Frequency Range = 0.1MHz-42MHz
*   Ambient Temperature = 25 degC
*   Inductor Impedance Model
*   Use model for Time Domain simulations
*======================================================================
.subckt SD54-184_imp port1 port2 PARAMS: Cpar=4.553pF Ind=180uH
X1 port1 port2 Model1D PARAMS:
+ R1=17
+ R2=874
+ C= {Cpar}
+ K1=0.00605
+ K2=51.5
+ K3= {Ind}
+ K4=0.6
+ K5=0.5
+ L=0
+ Is=0
+ a=0
+ L_Z0=0
+ L_EL=0
+ L_F0=0E6
+ PkZ=110634.788
.ends SD54-184_imp

*======================================================================
* SPICE Model generated by Coilcraft
* Coilcraft Part Number : SD54-224
* Inductance = 220uH
*======================================================================
* Model Parameters:
*   Valid Frequency Range = 0.1MHz-42MHz
*   Ambient Temperature = 25 degC
*   Inductor Frequency Model
*   Use model for Frequency Domain simulations
*======================================================================
.subckt SD54-224_freq port1 port2 PARAMS: Cpar=4.72pF Ind=220uH
X1 port1 port2 Model1A PARAMS:
+ R1=11
+ R2=996
+ C= {Cpar}
+ K1=0.00785
+ K2=59.2
+ K3= {Ind}
+ K4=0.3
+ K5=0.5
+ L=0
+ Is=0
+ a=0
+ L_Z0=0
+ L_EL=0
+ L_F0=0E6
+ PkZ=123139.232
.ends SD54-224_freq

*======================================================================
* SPICE Model generated by Coilcraft
* Coilcraft Part Number : SD54-224
* Inductance = 220uH
*======================================================================
* Model Parameters:
*   Valid Frequency Range = 0.1MHz-42MHz
*   Ambient Temperature = 25 degC
*   Inductor Impedance Model
*   Use model for Time Domain simulations
*======================================================================
.subckt SD54-224_imp port1 port2 PARAMS: Cpar=4.625pF Ind=220uH
X1 port1 port2 Model1D PARAMS:
+ R1=11
+ R2=996
+ C= {Cpar}
+ K1=0.00785
+ K2=59.2
+ K3= {Ind}
+ K4=0.3
+ K5=0.5
+ L=0
+ Is=0
+ a=0
+ L_Z0=0
+ L_EL=0
+ L_F0=0E6
+ PkZ=123139.232
.ends SD54-224_imp

*======================================================================
* SPICE Model generated by Coilcraft
* Coilcraft Impedance Inductor Model
*======================================================================
* Model Parameters:
*   Valid Frequency Range Varies by Inductor
*   Ambient Temperature = 25 degC
*   Time Domain Inductor Impedance Model
*======================================================================
.subckt Model1D Lin Lout PARAMS:
+ R1=1
+ R2=1
+ C=1
+ K3=1
+ PkZ=1
R2 Lin N001 {R2}
R3 N001 Lout {PkZ}
C1 N001 N002 {C}
R1 N002 Lout {R1}
L1 N001 Lout {K3}
.ends Model1D

*======================================================================
* SPICE Model generated by Coilcraft
* Coilcraft Power Inductor Model
*======================================================================
* Model Parameters:
*   Valid Frequency Range Varies by Inductor
*   Ambient Temperature = 25 degC
*   DC Bias Current = 0 A
*   Frequency Dependent Inductor Model
*======================================================================
.subckt Model1A Lin Lout PARAMS:
+ R1=1
+ R2=1
+ C=1
+ K1=1
+ K2=1
+ K3=1
+ K4=1
+ K5=1
R2 N001 Lin {R2}
R1 Lout N002 {R1}
C1 N002 N001 {C}
G_Rvar2 N001 Lout LAPLACE { V(N001, Lout) } {1/K2/(-S*S/4/PI^2)^0.25}
G_Rvar1 N001 N003 LAPLACE { V(N001, N003) } {1/K1/(-S*S/4/PI^2)^0.25}
G_Lvar N003 Lout  LAPLACE { V(N003, Lout) } {1/(S*1e-6*({K3*1e6}-({K4}*LOG({K5}*(sqrt(-S*S)/(2*pi))))))}
*This large resistance to ground has been added to prevent a floating node error
R3 N003 0 100Meg
.ends Model1A


.subckt Coilcraft_Inductor Lin Lout
R1 Lout Lin 100Meg
.ends Coilcraft_Inductor
