*======================================================================
* SPICE Model generated by Coilcraft
* Coilcraft Part Number : SER2009-301
* Inductance = 300nH
*======================================================================
* Model Parameters:
*   Valid Frequency Range = 0.1MHz-100MHz
*   Ambient Temperature = 25 degC
*   Inductor Frequency Model
*   Use model for Frequency Domain simulations
*======================================================================
.subckt SER2009-301_freq port1 port2 PARAMS: Cpar=15.7pF Ind=0.3uH
X1 port1 port2 Model1A PARAMS:
+ R1=200
+ R2=0.000588
+ C= {Cpar}
+ K1=0.000027
+ K2=0.064
+ K3= {Ind}
+ K4=0.00465
+ K5=0.000008
+ L=0
+ Is=0
+ a=0
+ L_Z0=0
+ L_EL=0
+ L_F0=0E6
+ PkZ=133.155472
.ends SER2009-301_freq

*======================================================================
* SPICE Model generated by Coilcraft
* Coilcraft Part Number : SER2009-301
* Inductance = 300nH
*======================================================================
* Model Parameters:
*   Valid Frequency Range = 0.1MHz-100MHz
*   Ambient Temperature = 25 degC
*   Inductor Impedance Model
*   Use model for Time Domain simulations
*======================================================================
.subckt SER2009-301_imp port1 port2 PARAMS: Cpar=14.149pF Ind=0.3uH
X1 port1 port2 Model1D PARAMS:
+ R1=200
+ R2=0.000588
+ C= {Cpar}
+ K1=0.000027
+ K2=0.064
+ K3= {Ind}
+ K4=0.00465
+ K5=0.000008
+ L=0
+ Is=0
+ a=0
+ L_Z0=0
+ L_EL=0
+ L_F0=0E6
+ PkZ=133.155472
.ends SER2009-301_imp

*======================================================================
* SPICE Model generated by Coilcraft
* Coilcraft Part Number : SER2009-501
* Inductance = 500nH
*======================================================================
* Model Parameters:
*   Valid Frequency Range = 0.1MHz-50MHz
*   Ambient Temperature = 25 degC
*   Inductor Frequency Model
*   Use model for Frequency Domain simulations
*======================================================================
.subckt SER2009-501_freq port1 port2 PARAMS: Cpar=19pF Ind=0.5uH
X1 port1 port2 Model1A PARAMS:
+ R1=275
+ R2=0.000588
+ C= {Cpar}
+ K1=0.000027
+ K2=0.07
+ K3= {Ind}
+ K4=0.00163
+ K5=0.000006
+ L=0
+ Is=0
+ a=0
+ L_Z0=0
+ L_EL=0
+ L_F0=0E6
+ PkZ=151.477474
.ends SER2009-501_freq

*======================================================================
* SPICE Model generated by Coilcraft
* Coilcraft Part Number : SER2009-501
* Inductance = 500nH
*======================================================================
* Model Parameters:
*   Valid Frequency Range = 0.1MHz-50MHz
*   Ambient Temperature = 25 degC
*   Inductor Impedance Model
*   Use model for Time Domain simulations
*======================================================================
.subckt SER2009-501_imp port1 port2 PARAMS: Cpar=18.645pF Ind=0.5uH
X1 port1 port2 Model1D PARAMS:
+ R1=275
+ R2=0.000588
+ C= {Cpar}
+ K1=0.000027
+ K2=0.07
+ K3= {Ind}
+ K4=0.00163
+ K5=0.000006
+ L=0
+ Is=0
+ a=0
+ L_Z0=0
+ L_EL=0
+ L_F0=0E6
+ PkZ=151.477474
.ends SER2009-501_imp

*======================================================================
* SPICE Model generated by Coilcraft
* Coilcraft Part Number : SER2009-601
* Inductance = 600nH
*======================================================================
* Model Parameters:
*   Valid Frequency Range = 0.1MHz-50MHz
*   Ambient Temperature = 25 degC
*   Inductor Frequency Model
*   Use model for Frequency Domain simulations
*======================================================================
.subckt SER2009-601_freq port1 port2 PARAMS: Cpar=19pF Ind=0.6uH
X1 port1 port2 Model1A PARAMS:
+ R1=275
+ R2=0.000588
+ C= {Cpar}
+ K1=0.000027
+ K2=0.07
+ K3= {Ind}
+ K4=0.00163
+ K5=0.000006
+ L=0
+ Is=0
+ a=0
+ L_Z0=0
+ L_EL=0
+ L_F0=0E6
+ PkZ=162.597959
.ends SER2009-601_freq

*======================================================================
* SPICE Model generated by Coilcraft
* Coilcraft Part Number : SER2009-601
* Inductance = 600nH
*======================================================================
* Model Parameters:
*   Valid Frequency Range = 0.1MHz-50MHz
*   Ambient Temperature = 25 degC
*   Inductor Impedance Model
*   Use model for Time Domain simulations
*======================================================================
.subckt SER2009-601_imp port1 port2 PARAMS: Cpar=18.709pF Ind=0.6uH
X1 port1 port2 Model1D PARAMS:
+ R1=275
+ R2=0.000588
+ C= {Cpar}
+ K1=0.000027
+ K2=0.07
+ K3= {Ind}
+ K4=0.00163
+ K5=0.000006
+ L=0
+ Is=0
+ a=0
+ L_Z0=0
+ L_EL=0
+ L_F0=0E6
+ PkZ=162.597959
.ends SER2009-601_imp

*======================================================================
* SPICE Model generated by Coilcraft
* Coilcraft Part Number : SER2009-681
* Inductance = 680nH
*======================================================================
* Model Parameters:
*   Valid Frequency Range = 0.1MHz-40MHz
*   Ambient Temperature = 25 degC
*   Inductor Frequency Model
*   Use model for Frequency Domain simulations
*======================================================================
.subckt SER2009-681_freq port1 port2 PARAMS: Cpar=23pF Ind=0.68uH
X1 port1 port2 Model1A PARAMS:
+ R1=230
+ R2=0.000588
+ C= {Cpar}
+ K1=0.00006
+ K2=0.079
+ K3= {Ind}
+ K4=0.00123
+ K5=0.00000385
+ L=0
+ Is=0
+ a=0
+ L_Z0=0
+ L_EL=0
+ L_F0=0E6
+ PkZ=163.960357
.ends SER2009-681_freq

*======================================================================
* SPICE Model generated by Coilcraft
* Coilcraft Part Number : SER2009-681
* Inductance = 680nH
*======================================================================
* Model Parameters:
*   Valid Frequency Range = 0.1MHz-40MHz
*   Ambient Temperature = 25 degC
*   Inductor Impedance Model
*   Use model for Time Domain simulations
*======================================================================
.subckt SER2009-681_imp port1 port2 PARAMS: Cpar=22.79pF Ind=0.68uH
X1 port1 port2 Model1D PARAMS:
+ R1=230
+ R2=0.000588
+ C= {Cpar}
+ K1=0.00006
+ K2=0.079
+ K3= {Ind}
+ K4=0.00123
+ K5=0.00000385
+ L=0
+ Is=0
+ a=0
+ L_Z0=0
+ L_EL=0
+ L_F0=0E6
+ PkZ=163.960357
.ends SER2009-681_imp

*======================================================================
* SPICE Model generated by Coilcraft
* Coilcraft Part Number : SER2009-801
* Inductance = 800nH
*======================================================================
* Model Parameters:
*   Valid Frequency Range = 0.1MHz-30MHz
*   Ambient Temperature = 25 degC
*   Inductor Frequency Model
*   Use model for Frequency Domain simulations
*======================================================================
.subckt SER2009-801_freq port1 port2 PARAMS: Cpar=30pF Ind=0.8uH
X1 port1 port2 Model1A PARAMS:
+ R1=340
+ R2=0.000588
+ C= {Cpar}
+ K1=0.000033
+ K2=0.108
+ K3= {Ind}
+ K4=0.00022
+ K5=3.15E-07
+ L=0
+ Is=0
+ a=0
+ L_Z0=0
+ L_EL=0
+ L_F0=0E6
+ PkZ=156.263168
.ends SER2009-801_freq

*======================================================================
* SPICE Model generated by Coilcraft
* Coilcraft Part Number : SER2009-801
* Inductance = 800nH
*======================================================================
* Model Parameters:
*   Valid Frequency Range = 0.1MHz-30MHz
*   Ambient Temperature = 25 degC
*   Inductor Impedance Model
*   Use model for Time Domain simulations
*======================================================================
.subckt SER2009-801_imp port1 port2 PARAMS: Cpar=29.981pF Ind=0.8uH
X1 port1 port2 Model1D PARAMS:
+ R1=340
+ R2=0.000588
+ C= {Cpar}
+ K1=0.000033
+ K2=0.108
+ K3= {Ind}
+ K4=0.00022
+ K5=3.15E-07
+ L=0
+ Is=0
+ a=0
+ L_Z0=0
+ L_EL=0
+ L_F0=0E6
+ PkZ=156.263168
.ends SER2009-801_imp

*======================================================================
* SPICE Model generated by Coilcraft
* Coilcraft Part Number : SER2009-901
* Inductance = 900nH
*======================================================================
* Model Parameters:
*   Valid Frequency Range = 0.1MHz-30MHz
*   Ambient Temperature = 25 degC
*   Inductor Frequency Model
*   Use model for Frequency Domain simulations
*======================================================================
.subckt SER2009-901_freq port1 port2 PARAMS: Cpar=31.3pF Ind=0.9uH
X1 port1 port2 Model1A PARAMS:
+ R1=260
+ R2=0.000588
+ C= {Cpar}
+ K1=0.00008
+ K2=0.116
+ K3= {Ind}
+ K4=0.00429
+ K5=0.000007
+ L=0
+ Is=0
+ a=0
+ L_Z0=0
+ L_EL=0
+ L_F0=0E6
+ PkZ=165.931749
.ends SER2009-901_freq

*======================================================================
* SPICE Model generated by Coilcraft
* Coilcraft Part Number : SER2009-901
* Inductance = 900nH
*======================================================================
* Model Parameters:
*   Valid Frequency Range = 0.1MHz-30MHz
*   Ambient Temperature = 25 degC
*   Inductor Impedance Model
*   Use model for Time Domain simulations
*======================================================================
.subckt SER2009-901_imp port1 port2 PARAMS: Cpar=30.502pF Ind=0.9uH
X1 port1 port2 Model1D PARAMS:
+ R1=260
+ R2=0.000588
+ C= {Cpar}
+ K1=0.00008
+ K2=0.116
+ K3= {Ind}
+ K4=0.00429
+ K5=0.000007
+ L=0
+ Is=0
+ a=0
+ L_Z0=0
+ L_EL=0
+ L_F0=0E6
+ PkZ=165.931749
.ends SER2009-901_imp

*======================================================================
* SPICE Model generated by Coilcraft
* Coilcraft Part Number : SER2009-102
* Inductance = 1uH
*======================================================================
* Model Parameters:
*   Valid Frequency Range = 0.1MHz-40MHz
*   Ambient Temperature = 25 degC
*   Inductor Frequency Model
*   Use model for Frequency Domain simulations
*======================================================================
.subckt SER2009-102_freq port1 port2 PARAMS: Cpar=32.3pF Ind=1uH
X1 port1 port2 Model1A PARAMS:
+ R1=220
+ R2=0.000588
+ C= {Cpar}
+ K1=0.000045
+ K2=0.115
+ K3= {Ind}
+ K4=0.00165
+ K5=0.000004
+ L=0
+ Is=0
+ a=0
+ L_Z0=0
+ L_EL=0
+ L_F0=0E6
+ PkZ=177.351104
.ends SER2009-102_freq

*======================================================================
* SPICE Model generated by Coilcraft
* Coilcraft Part Number : SER2009-102
* Inductance = 1uH
*======================================================================
* Model Parameters:
*   Valid Frequency Range = 0.1MHz-40MHz
*   Ambient Temperature = 25 degC
*   Inductor Impedance Model
*   Use model for Time Domain simulations
*======================================================================
.subckt SER2009-102_imp port1 port2 PARAMS: Cpar=32.049pF Ind=1uH
X1 port1 port2 Model1D PARAMS:
+ R1=220
+ R2=0.000588
+ C= {Cpar}
+ K1=0.000045
+ K2=0.115
+ K3= {Ind}
+ K4=0.00165
+ K5=0.000004
+ L=0
+ Is=0
+ a=0
+ L_Z0=0
+ L_EL=0
+ L_F0=0E6
+ PkZ=177.351104
.ends SER2009-102_imp

*======================================================================
* SPICE Model generated by Coilcraft
* Coilcraft Part Number : SER2009-122
* Inductance = 1.2uH
*======================================================================
* Model Parameters:
*   Valid Frequency Range = 0.1MHz-30MHz
*   Ambient Temperature = 25 degC
*   Inductor Frequency Model
*   Use model for Frequency Domain simulations
*======================================================================
.subckt SER2009-122_freq port1 port2 PARAMS: Cpar=27pF Ind=1.2uH
X1 port1 port2 Model1A PARAMS:
+ R1=235
+ R2=0.000588
+ C= {Cpar}
+ K1=0.000084
+ K2=0.096
+ K3= {Ind}
+ K4=0.00385
+ K5=0.0000043
+ L=0
+ Is=0
+ a=0
+ L_Z0=0
+ L_EL=0
+ L_F0=0E6
+ PkZ=196.094263
.ends SER2009-122_freq

*======================================================================
* SPICE Model generated by Coilcraft
* Coilcraft Part Number : SER2009-122
* Inductance = 1.2uH
*======================================================================
* Model Parameters:
*   Valid Frequency Range = 0.1MHz-30MHz
*   Ambient Temperature = 25 degC
*   Inductor Impedance Model
*   Use model for Time Domain simulations
*======================================================================
.subckt SER2009-122_imp port1 port2 PARAMS: Cpar=26.585pF Ind=1.2uH
X1 port1 port2 Model1D PARAMS:
+ R1=235
+ R2=0.000588
+ C= {Cpar}
+ K1=0.000084
+ K2=0.096
+ K3= {Ind}
+ K4=0.00385
+ K5=0.0000043
+ L=0
+ Is=0
+ a=0
+ L_Z0=0
+ L_EL=0
+ L_F0=0E6
+ PkZ=196.094263
.ends SER2009-122_imp

*======================================================================
* SPICE Model generated by Coilcraft
* Coilcraft Part Number : SER2009-202
* Inductance = 2uH
*======================================================================
* Model Parameters:
*   Valid Frequency Range = 0.1MHz-20MHz
*   Ambient Temperature = 25 degC
*   Inductor Frequency Model
*   Use model for Frequency Domain simulations
*======================================================================
.subckt SER2009-202_freq port1 port2 PARAMS: Cpar=45pF Ind=2uH
X1 port1 port2 Model1A PARAMS:
+ R1=245
+ R2=0.000588
+ C= {Cpar}
+ K1=0.000035
+ K2=0.16
+ K3= {Ind}
+ K4=0.023
+ K5=0.00000838
+ L=0
+ Is=0
+ a=0
+ L_Z0=0
+ L_EL=0
+ L_F0=0E6
+ PkZ=205.961741
.ends SER2009-202_freq

*======================================================================
* SPICE Model generated by Coilcraft
* Coilcraft Part Number : SER2009-202
* Inductance = 2uH
*======================================================================
* Model Parameters:
*   Valid Frequency Range = 0.1MHz-20MHz
*   Ambient Temperature = 25 degC
*   Inductor Impedance Model
*   Use model for Time Domain simulations
*======================================================================
.subckt SER2009-202_imp port1 port2 PARAMS: Cpar=42.441pF Ind=2uH
X1 port1 port2 Model1D PARAMS:
+ R1=245
+ R2=0.000588
+ C= {Cpar}
+ K1=0.000035
+ K2=0.16
+ K3= {Ind}
+ K4=0.023
+ K5=0.00000838
+ L=0
+ Is=0
+ a=0
+ L_Z0=0
+ L_EL=0
+ L_F0=0E6
+ PkZ=205.961741
.ends SER2009-202_imp

*======================================================================
* SPICE Model generated by Coilcraft
* Coilcraft Part Number : SER2010-301
* Inductance = 300nH
*======================================================================
* Model Parameters:
*   Valid Frequency Range = 0.1MHz-100MHz
*   Ambient Temperature = 25 degC
*   Inductor Frequency Model
*   Use model for Frequency Domain simulations
*======================================================================
.subckt SER2010-301_freq port1 port2 PARAMS: Cpar=4.4pF Ind=0.3uH
X1 port1 port2 Model1A PARAMS:
+ R1=110
+ R2=0.000852
+ C= {Cpar}
+ K1=0.000027
+ K2=0.053
+ K3= {Ind}
+ K4=0.00076
+ K5=0.000008
+ L=0
+ Is=0
+ a=0
+ L_Z0=0
+ L_EL=0
+ L_F0=0E6
+ PkZ=327.897795
.ends SER2010-301_freq

*======================================================================
* SPICE Model generated by Coilcraft
* Coilcraft Part Number : SER2010-301
* Inductance = 300nH
*======================================================================
* Model Parameters:
*   Valid Frequency Range = 0.1MHz-100MHz
*   Ambient Temperature = 25 degC
*   Inductor Impedance Model
*   Use model for Time Domain simulations
*======================================================================
.subckt SER2010-301_imp port1 port2 PARAMS: Cpar=4.322pF Ind=0.3uH
X1 port1 port2 Model1D PARAMS:
+ R1=110
+ R2=0.000852
+ C= {Cpar}
+ K1=0.000027
+ K2=0.053
+ K3= {Ind}
+ K4=0.00076
+ K5=0.000008
+ L=0
+ Is=0
+ a=0
+ L_Z0=0
+ L_EL=0
+ L_F0=0E6
+ PkZ=327.897795
.ends SER2010-301_imp

*======================================================================
* SPICE Model generated by Coilcraft
* Coilcraft Part Number : SER2010-501
* Inductance = 500nH
*======================================================================
* Model Parameters:
*   Valid Frequency Range = 0.1MHz-70MHz
*   Ambient Temperature = 25 degC
*   Inductor Frequency Model
*   Use model for Frequency Domain simulations
*======================================================================
.subckt SER2010-501_freq port1 port2 PARAMS: Cpar=8.06pF Ind=0.5uH
X1 port1 port2 Model1A PARAMS:
+ R1=170
+ R2=0.000852
+ C= {Cpar}
+ K1=0.000066
+ K2=0.085
+ K3= {Ind}
+ K4=0.00123
+ K5=0.000006
+ L=0
+ Is=0
+ a=0
+ L_Z0=0
+ L_EL=0
+ L_F0=0E6
+ PkZ=288.389484
.ends SER2010-501_freq

*======================================================================
* SPICE Model generated by Coilcraft
* Coilcraft Part Number : SER2010-501
* Inductance = 500nH
*======================================================================
* Model Parameters:
*   Valid Frequency Range = 0.1MHz-70MHz
*   Ambient Temperature = 25 degC
*   Inductor Impedance Model
*   Use model for Time Domain simulations
*======================================================================
.subckt SER2010-501_imp port1 port2 PARAMS: Cpar=7.938pF Ind=0.5uH
X1 port1 port2 Model1D PARAMS:
+ R1=170
+ R2=0.000852
+ C= {Cpar}
+ K1=0.000066
+ K2=0.085
+ K3= {Ind}
+ K4=0.00123
+ K5=0.000006
+ L=0
+ Is=0
+ a=0
+ L_Z0=0
+ L_EL=0
+ L_F0=0E6
+ PkZ=288.389484
.ends SER2010-501_imp

*======================================================================
* SPICE Model generated by Coilcraft
* Coilcraft Part Number : SER2010-601
* Inductance = 600nH
*======================================================================
* Model Parameters:
*   Valid Frequency Range = 0.1MHz-80MHz
*   Ambient Temperature = 25 degC
*   Inductor Frequency Model
*   Use model for Frequency Domain simulations
*======================================================================
.subckt SER2010-601_freq port1 port2 PARAMS: Cpar=7.02pF Ind=0.6uH
X1 port1 port2 Model1A PARAMS:
+ R1=170
+ R2=0.000852
+ C= {Cpar}
+ K1=0.000048
+ K2=0.091
+ K3= {Ind}
+ K4=0.00135
+ K5=0.0000682
+ L=0
+ Is=0
+ a=0
+ L_Z0=0
+ L_EL=0
+ L_F0=0E6
+ PkZ=345.558942
.ends SER2010-601_freq

*======================================================================
* SPICE Model generated by Coilcraft
* Coilcraft Part Number : SER2010-601
* Inductance = 600nH
*======================================================================
* Model Parameters:
*   Valid Frequency Range = 0.1MHz-80MHz
*   Ambient Temperature = 25 degC
*   Inductor Impedance Model
*   Use model for Time Domain simulations
*======================================================================
.subckt SER2010-601_imp port1 port2 PARAMS: Cpar=6.885pF Ind=0.6uH
X1 port1 port2 Model1D PARAMS:
+ R1=170
+ R2=0.000852
+ C= {Cpar}
+ K1=0.000048
+ K2=0.091
+ K3= {Ind}
+ K4=0.00135
+ K5=0.0000682
+ L=0
+ Is=0
+ a=0
+ L_Z0=0
+ L_EL=0
+ L_F0=0E6
+ PkZ=345.558942
.ends SER2010-601_imp

*======================================================================
* SPICE Model generated by Coilcraft
* Coilcraft Part Number : SER2010-681
* Inductance = 680nH
*======================================================================
* Model Parameters:
*   Valid Frequency Range = 0.1MHz-60MHz
*   Ambient Temperature = 25 degC
*   Inductor Frequency Model
*   Use model for Frequency Domain simulations
*======================================================================
.subckt SER2010-681_freq port1 port2 PARAMS: Cpar=8.77pF Ind=0.68uH
X1 port1 port2 Model1A PARAMS:
+ R1=190
+ R2=0.000852
+ C= {Cpar}
+ K1=0.00006
+ K2=0.105
+ K3= {Ind}
+ K4=0.00123
+ K5=0.0000062
+ L=0
+ Is=0
+ a=0
+ L_Z0=0
+ L_EL=0
+ L_F0=0E6
+ PkZ=323.474035
.ends SER2010-681_freq

*======================================================================
* SPICE Model generated by Coilcraft
* Coilcraft Part Number : SER2010-681
* Inductance = 680nH
*======================================================================
* Model Parameters:
*   Valid Frequency Range = 0.1MHz-60MHz
*   Ambient Temperature = 25 degC
*   Inductor Impedance Model
*   Use model for Time Domain simulations
*======================================================================
.subckt SER2010-681_imp port1 port2 PARAMS: Cpar=8.675pF Ind=0.68uH
X1 port1 port2 Model1D PARAMS:
+ R1=190
+ R2=0.000852
+ C= {Cpar}
+ K1=0.00006
+ K2=0.105
+ K3= {Ind}
+ K4=0.00123
+ K5=0.0000062
+ L=0
+ Is=0
+ a=0
+ L_Z0=0
+ L_EL=0
+ L_F0=0E6
+ PkZ=323.474035
.ends SER2010-681_imp

*======================================================================
* SPICE Model generated by Coilcraft
* Coilcraft Part Number : SER2010-801
* Inductance = 800nH
*======================================================================
* Model Parameters:
*   Valid Frequency Range = 0.1MHz-60MHz
*   Ambient Temperature = 25 degC
*   Inductor Frequency Model
*   Use model for Frequency Domain simulations
*======================================================================
.subckt SER2010-801_freq port1 port2 PARAMS: Cpar=8.79pF Ind=0.8uH
X1 port1 port2 Model1A PARAMS:
+ R1=173
+ R2=0.000852
+ C= {Cpar}
+ K1=0.00006
+ K2=0.098
+ K3= {Ind}
+ K4=0.00022
+ K5=3.15E-07
+ L=0
+ Is=0
+ a=0
+ L_Z0=0
+ L_EL=0
+ L_F0=0E6
+ PkZ=348.052483
.ends SER2010-801_freq

*======================================================================
* SPICE Model generated by Coilcraft
* Coilcraft Part Number : SER2010-801
* Inductance = 800nH
*======================================================================
* Model Parameters:
*   Valid Frequency Range = 0.1MHz-60MHz
*   Ambient Temperature = 25 degC
*   Inductor Impedance Model
*   Use model for Time Domain simulations
*======================================================================
.subckt SER2010-801_imp port1 port2 PARAMS: Cpar=8.783pF Ind=0.8uH
X1 port1 port2 Model1D PARAMS:
+ R1=173
+ R2=0.000852
+ C= {Cpar}
+ K1=0.00006
+ K2=0.098
+ K3= {Ind}
+ K4=0.00022
+ K5=3.15E-07
+ L=0
+ Is=0
+ a=0
+ L_Z0=0
+ L_EL=0
+ L_F0=0E6
+ PkZ=348.052483
.ends SER2010-801_imp

*======================================================================
* SPICE Model generated by Coilcraft
* Coilcraft Part Number : SER2010-901
* Inductance = 900nH
*======================================================================
* Model Parameters:
*   Valid Frequency Range = 0.1MHz-40MHz
*   Ambient Temperature = 25 degC
*   Inductor Frequency Model
*   Use model for Frequency Domain simulations
*======================================================================
.subckt SER2010-901_freq port1 port2 PARAMS: Cpar=9.93pF Ind=0.9uH
X1 port1 port2 Model1A PARAMS:
+ R1=300
+ R2=0.000852
+ C= {Cpar}
+ K1=0.0001
+ K2=0.144
+ K3= {Ind}
+ K4=0.00102
+ K5=0.00000215
+ L=0
+ Is=0
+ a=0
+ L_Z0=0
+ L_EL=0
+ L_F0=0E6
+ PkZ=321.855204
.ends SER2010-901_freq

*======================================================================
* SPICE Model generated by Coilcraft
* Coilcraft Part Number : SER2010-901
* Inductance = 900nH
*======================================================================
* Model Parameters:
*   Valid Frequency Range = 0.1MHz-40MHz
*   Ambient Temperature = 25 degC
*   Inductor Impedance Model
*   Use model for Time Domain simulations
*======================================================================
.subckt SER2010-901_imp port1 port2 PARAMS: Cpar=9.877pF Ind=0.9uH
X1 port1 port2 Model1D PARAMS:
+ R1=300
+ R2=0.000852
+ C= {Cpar}
+ K1=0.0001
+ K2=0.144
+ K3= {Ind}
+ K4=0.00102
+ K5=0.00000215
+ L=0
+ Is=0
+ a=0
+ L_Z0=0
+ L_EL=0
+ L_F0=0E6
+ PkZ=321.855204
.ends SER2010-901_imp

*======================================================================
* SPICE Model generated by Coilcraft
* Coilcraft Part Number : SER2010-102
* Inductance = 1uH
*======================================================================
* Model Parameters:
*   Valid Frequency Range = 0.1MHz-50MHz
*   Ambient Temperature = 25 degC
*   Inductor Frequency Model
*   Use model for Frequency Domain simulations
*======================================================================
.subckt SER2010-102_freq port1 port2 PARAMS: Cpar=10.3pF Ind=1uH
X1 port1 port2 Model1A PARAMS:
+ R1=220
+ R2=0.000852
+ C= {Cpar}
+ K1=0.000045
+ K2=0.126
+ K3= {Ind}
+ K4=0.0076
+ K5=0.0000078
+ L=0
+ Is=0
+ a=0
+ L_Z0=0
+ L_EL=0
+ L_F0=0E6
+ PkZ=344.296707
.ends SER2010-102_freq

*======================================================================
* SPICE Model generated by Coilcraft
* Coilcraft Part Number : SER2010-102
* Inductance = 1uH
*======================================================================
* Model Parameters:
*   Valid Frequency Range = 0.1MHz-50MHz
*   Ambient Temperature = 25 degC
*   Inductor Impedance Model
*   Use model for Time Domain simulations
*======================================================================
.subckt SER2010-102_imp port1 port2 PARAMS: Cpar=9.834pF Ind=1uH
X1 port1 port2 Model1D PARAMS:
+ R1=220
+ R2=0.000852
+ C= {Cpar}
+ K1=0.000045
+ K2=0.126
+ K3= {Ind}
+ K4=0.0076
+ K5=0.0000078
+ L=0
+ Is=0
+ a=0
+ L_Z0=0
+ L_EL=0
+ L_F0=0E6
+ PkZ=344.296707
.ends SER2010-102_imp

*======================================================================
* SPICE Model generated by Coilcraft
* Coilcraft Part Number : SER2010-122
* Inductance = 1.2uH
*======================================================================
* Model Parameters:
*   Valid Frequency Range = 0.1MHz-40MHz
*   Ambient Temperature = 25 degC
*   Inductor Frequency Model
*   Use model for Frequency Domain simulations
*======================================================================
.subckt SER2010-122_freq port1 port2 PARAMS: Cpar=9.52pF Ind=1.2uH
X1 port1 port2 Model1A PARAMS:
+ R1=350
+ R2=0.000852
+ C= {Cpar}
+ K1=0.000123
+ K2=0.141
+ K3= {Ind}
+ K4=0.00385
+ K5=0.00000517
+ L=0
+ Is=0
+ a=0
+ L_Z0=0
+ L_EL=0
+ L_F0=0E6
+ PkZ=352.835896
.ends SER2010-122_freq

*======================================================================
* SPICE Model generated by Coilcraft
* Coilcraft Part Number : SER2010-122
* Inductance = 1.2uH
*======================================================================
* Model Parameters:
*   Valid Frequency Range = 0.1MHz-40MHz
*   Ambient Temperature = 25 degC
*   Inductor Impedance Model
*   Use model for Time Domain simulations
*======================================================================
.subckt SER2010-122_imp port1 port2 PARAMS: Cpar=9.352pF Ind=1.2uH
X1 port1 port2 Model1D PARAMS:
+ R1=350
+ R2=0.000852
+ C= {Cpar}
+ K1=0.000123
+ K2=0.141
+ K3= {Ind}
+ K4=0.00385
+ K5=0.00000517
+ L=0
+ Is=0
+ a=0
+ L_Z0=0
+ L_EL=0
+ L_F0=0E6
+ PkZ=352.835896
.ends SER2010-122_imp

*======================================================================
* SPICE Model generated by Coilcraft
* Coilcraft Part Number : SER2010-202
* Inductance = 2uH
*======================================================================
* Model Parameters:
*   Valid Frequency Range = 0.1MHz-30MHz
*   Ambient Temperature = 25 degC
*   Inductor Frequency Model
*   Use model for Frequency Domain simulations
*======================================================================
.subckt SER2010-202_freq port1 port2 PARAMS: Cpar=13.3pF Ind=2uH
X1 port1 port2 Model1A PARAMS:
+ R1=325
+ R2=0.000852
+ C= {Cpar}
+ K1=0.000035
+ K2=0.194
+ K3= {Ind}
+ K4=0.012
+ K5=0.00000838
+ L=0
+ Is=0
+ a=0
+ L_Z0=0
+ L_EL=0
+ L_F0=0E6
+ PkZ=403.864165
.ends SER2010-202_freq

*======================================================================
* SPICE Model generated by Coilcraft
* Coilcraft Part Number : SER2010-202
* Inductance = 2uH
*======================================================================
* Model Parameters:
*   Valid Frequency Range = 0.1MHz-30MHz
*   Ambient Temperature = 25 degC
*   Inductor Impedance Model
*   Use model for Time Domain simulations
*======================================================================
.subckt SER2010-202_imp port1 port2 PARAMS: Cpar=12.857pF Ind=2uH
X1 port1 port2 Model1D PARAMS:
+ R1=325
+ R2=0.000852
+ C= {Cpar}
+ K1=0.000035
+ K2=0.194
+ K3= {Ind}
+ K4=0.012
+ K5=0.00000838
+ L=0
+ Is=0
+ a=0
+ L_Z0=0
+ L_EL=0
+ L_F0=0E6
+ PkZ=403.864165
.ends SER2010-202_imp

*======================================================================
* SPICE Model generated by Coilcraft
* Coilcraft Part Number : SER2011-501
* Inductance = 500nH
*======================================================================
* Model Parameters:
*   Valid Frequency Range = 0.1MHz-100MHz
*   Ambient Temperature = 25 degC
*   Inductor Frequency Model
*   Use model for Frequency Domain simulations
*======================================================================
.subckt SER2011-501_freq port1 port2 PARAMS: Cpar=3.98pF Ind=0.5uH
X1 port1 port2 Model1A PARAMS:
+ R1=100
+ R2=0.00113
+ C= {Cpar}
+ K1=0.0001
+ K2=0.085
+ K3= {Ind}
+ K4=0.00123
+ K5=0.000004
+ L=0
+ Is=0
+ a=0
+ L_Z0=0
+ L_EL=0
+ L_F0=0E6
+ PkZ=534.226775
.ends SER2011-501_freq

*======================================================================
* SPICE Model generated by Coilcraft
* Coilcraft Part Number : SER2011-501
* Inductance = 500nH
*======================================================================
* Model Parameters:
*   Valid Frequency Range = 0.1MHz-100MHz
*   Ambient Temperature = 25 degC
*   Inductor Impedance Model
*   Use model for Time Domain simulations
*======================================================================
.subckt SER2011-501_imp port1 port2 PARAMS: Cpar=3.92pF Ind=0.5uH