*======================================================================
* SPICE Model generated by Coilcraft
* Coilcraft Part Number : XAL4020-221
* Inductance = 220nH
*======================================================================
* Model Parameters:
*   Valid Frequency Range = 0.1MHz-300MHz
*   Ambient Temperature = 25 degC
*   Inductor Frequency Model
*   Use model for Frequency Domain simulations
*======================================================================
.subckt XAL4020-221_freq port1 port2 PARAMS: Cpar=4.2pF Ind=0.22uH
X1 port1 port2 Model1A PARAMS:
+ R1=5
+ R2=0.00581
+ C= {Cpar}
+ K1=0.0000005
+ K2=0.022
+ K3= {Ind}
+ K4=0.000009
+ K5=0.000008
+ L=2.373E-07
+ Is=41.2803
+ a=0.6971
+ L_Z0=0
+ L_EL=0
+ L_F0=0E6
+ PkZ=275.653003
.ends XAL4020-221_freq

*======================================================================
* SPICE Model generated by Coilcraft
* Coilcraft Part Number : XAL4020-221
* Inductance = 220nH
*======================================================================
* Model Parameters:
*   Valid Frequency Range = 0.1MHz-300MHz
*   Ambient Temperature = 25 degC
*   Inductor Saturation Model
*   Use model for Time Domain simulations
*======================================================================
.subckt XAL4020-221_sat port1 port2 PARAMS: Cpar=4.199pF Ind=0.22uH
X1 port1 port2 Model1C PARAMS:
+ R1=5
+ R2=0.00581
+ C= {Cpar}
+ K1=0.0000005
+ K2=0.022
+ K3= {Ind}
+ K4=0.000009
+ K5=0.000008
+ L=2.373E-07
+ Is=41.2803
+ a=0.6971
+ L_Z0=0
+ L_EL=0
+ L_F0=0E6
+ PkZ=275.653003
.ends XAL4020-221_sat

*======================================================================
* SPICE Model generated by Coilcraft
* Coilcraft Part Number : XAL4020-401
* Inductance = 400nH
*======================================================================
* Model Parameters:
*   Valid Frequency Range = 0.1MHz-300MHz
*   Ambient Temperature = 25 degC
*   Inductor Frequency Model
*   Use model for Frequency Domain simulations
*======================================================================
.subckt XAL4020-401_freq port1 port2 PARAMS: Cpar=3.1pF Ind=0.4uH
X1 port1 port2 Model1A PARAMS:
+ R1=5
+ R2=0.00755
+ C= {Cpar}
+ K1=0.00015
+ K2=0.035
+ K3= {Ind}
+ K4=0.001
+ K5=0.0000004
+ L=4.014E-07
+ Is=34.4682
+ a=0.6677
+ L_Z0=0
+ L_EL=0
+ L_F0=0E6
+ PkZ=410.342388
.ends XAL4020-401_freq

*======================================================================
* SPICE Model generated by Coilcraft
* Coilcraft Part Number : XAL4020-401
* Inductance = 400nH
*======================================================================
* Model Parameters:
*   Valid Frequency Range = 0.1MHz-300MHz
*   Ambient Temperature = 25 degC
*   Inductor Saturation Model
*   Use model for Time Domain simulations
*======================================================================
.subckt XAL4020-401_sat port1 port2 PARAMS: Cpar=3.069pF Ind=0.4uH
X1 port1 port2 Model1C PARAMS:
+ R1=5
+ R2=0.00755
+ C= {Cpar}
+ K1=0.00015
+ K2=0.035
+ K3= {Ind}
+ K4=0.001
+ K5=0.0000004
+ L=4.014E-07
+ Is=34.4682
+ a=0.6677
+ L_Z0=0
+ L_EL=0
+ L_F0=0E6
+ PkZ=410.342388
.ends XAL4020-401_sat

*======================================================================
* SPICE Model generated by Coilcraft
* Coilcraft Part Number : XAL4020-601
* Inductance = 600nH
*======================================================================
* Model Parameters:
*   Valid Frequency Range = 0.1MHz-300MHz
*   Ambient Temperature = 25 degC
*   Inductor Frequency Model
*   Use model for Frequency Domain simulations
*======================================================================
.subckt XAL4020-601_freq port1 port2 PARAMS: Cpar=4.3pF Ind=0.6uH
X1 port1 port2 Model1A PARAMS:
+ R1=6
+ R2=0.0095
+ C= {Cpar}
+ K1=0.00015
+ K2=0.056
+ K3= {Ind}
+ K4=0.0005
+ K5=0.00000001
+ L=5.93E-07
+ Is=28.1919
+ a=0.6944
+ L_Z0=0
+ L_EL=0
+ L_F0=0E6
+ PkZ=541.243954
.ends XAL4020-601_freq

*======================================================================
* SPICE Model generated by Coilcraft
* Coilcraft Part Number : XAL4020-601
* Inductance = 600nH
*======================================================================
* Model Parameters:
*   Valid Frequency Range = 0.1MHz-300MHz
*   Ambient Temperature = 25 degC
*   Inductor Saturation Model
*   Use model for Time Domain simulations
*======================================================================
.subckt XAL4020-601_sat port1 port2 PARAMS: Cpar=4.3pF Ind=0.6uH
X1 port1 port2 Model1C PARAMS:
+ R1=6
+ R2=0.0095
+ C= {Cpar}
+ K1=0.00015
+ K2=0.056
+ K3= {Ind}
+ K4=0.0005
+ K5=0.00000001
+ L=5.93E-07
+ Is=28.1919
+ a=0.6944
+ L_Z0=0
+ L_EL=0
+ L_F0=0E6
+ PkZ=541.243954
.ends XAL4020-601_sat

*======================================================================
* SPICE Model generated by Coilcraft
* Coilcraft Part Number : XAL4020-102
* Inductance = 1uH
*======================================================================
* Model Parameters:
*   Valid Frequency Range = 0.1MHz-300MHz
*   Ambient Temperature = 25 degC
*   Inductor Frequency Model
*   Use model for Frequency Domain simulations
*======================================================================
.subckt XAL4020-102_freq port1 port2 PARAMS: Cpar=3.7pF Ind=1uH
X1 port1 port2 Model1A PARAMS:
+ R1=10
+ R2=0.01325
+ C= {Cpar}
+ K1=0.00005
+ K2=0.24
+ K3= {Ind}
+ K4=0.008
+ K5=0.000009
+ L=9.507E-07
+ Is=24.7161
+ a=0.6497
+ L_Z0=0
+ L_EL=0
+ L_F0=0E6
+ PkZ=2029.48232
.ends XAL4020-102_freq

*======================================================================
* SPICE Model generated by Coilcraft
* Coilcraft Part Number : XAL4020-102
* Inductance = 1uH
*======================================================================
* Model Parameters:
*   Valid Frequency Range = 0.1MHz-300MHz
*   Ambient Temperature = 25 degC
*   Inductor Saturation Model
*   Use model for Time Domain simulations
*======================================================================
.subckt XAL4020-102_sat port1 port2 PARAMS: Cpar=3.504pF Ind=1uH
X1 port1 port2 Model1C PARAMS:
+ R1=10
+ R2=0.01325
+ C= {Cpar}
+ K1=0.00005
+ K2=0.24
+ K3= {Ind}
+ K4=0.008
+ K5=0.000009
+ L=9.507E-07
+ Is=24.7161
+ a=0.6497
+ L_Z0=0
+ L_EL=0
+ L_F0=0E6
+ PkZ=2029.48232
.ends XAL4020-102_sat

*======================================================================
* SPICE Model generated by Coilcraft
* Coilcraft Part Number : XAL4020-122
* Inductance = 1.2uH
*======================================================================
* Model Parameters:
*   Valid Frequency Range = 0.1MHz-200MHz
*   Ambient Temperature = 25 degC
*   Inductor Frequency Model
*   Use model for Frequency Domain simulations
*======================================================================
.subckt XAL4020-122_freq port1 port2 PARAMS: Cpar=6.2pF Ind=1.2uH
X1 port1 port2 Model1A PARAMS:
+ R1=8
+ R2=0.0178
+ C= {Cpar}
+ K1=0.0001
+ K2=0.32
+ K3= {Ind}
+ K4=0.000001
+ K5=0.000001
+ L=1.0841E-06
+ Is=24.3734
+ a=0.6599
+ L_Z0=0
+ L_EL=0
+ L_F0=0E6
+ PkZ=2200.8663
.ends XAL4020-122_freq

*======================================================================
* SPICE Model generated by Coilcraft
* Coilcraft Part Number : XAL4020-122
* Inductance = 1.2uH
*======================================================================
* Model Parameters:
*   Valid Frequency Range = 0.1MHz-200MHz
*   Ambient Temperature = 25 degC
*   Inductor Saturation Model
*   Use model for Time Domain simulations
*======================================================================
.subckt XAL4020-122_sat port1 port2 PARAMS: Cpar=6.2pF Ind=1.2uH
X1 port1 port2 Model1C PARAMS:
+ R1=8
+ R2=0.0178
+ C= {Cpar}
+ K1=0.0001
+ K2=0.32
+ K3= {Ind}
+ K4=0.000001
+ K5=0.000001
+ L=1.0841E-06
+ Is=24.3734
+ a=0.6599
+ L_Z0=0
+ L_EL=0
+ L_F0=0E6
+ PkZ=2200.8663
.ends XAL4020-122_sat

*======================================================================
* SPICE Model generated by Coilcraft
* Coilcraft Part Number : XAL4020-152
* Inductance = 1.5uH
*======================================================================
* Model Parameters:
*   Valid Frequency Range = 0.1MHz-200MHz
*   Ambient Temperature = 25 degC
*   Inductor Frequency Model
*   Use model for Frequency Domain simulations
*======================================================================
.subckt XAL4020-152_freq port1 port2 PARAMS: Cpar=2.7pF Ind=1.5uH
X1 port1 port2 Model1A PARAMS:
+ R1=11
+ R2=0.02145
+ C= {Cpar}
+ K1=0.00005
+ K2=0.41
+ K3= {Ind}
+ K4=0.004
+ K5=0.000008
+ L=1.5455E-06
+ Is=22.4544
+ a=0.5738
+ L_Z0=0
+ L_EL=0
+ L_F0=0E6
+ PkZ=3400.94442
.ends XAL4020-152_freq

*======================================================================
* SPICE Model generated by Coilcraft
* Coilcraft Part Number : XAL4020-152
* Inductance = 1.5uH
*======================================================================
* Model Parameters:
*   Valid Frequency Range = 0.1MHz-200MHz
*   Ambient Temperature = 25 degC
*   Inductor Saturation Model
*   Use model for Time Domain simulations
*======================================================================
.subckt XAL4020-152_sat port1 port2 PARAMS: Cpar=2.654pF Ind=1.5uH
X1 port1 port2 Model1C PARAMS:
+ R1=11
+ R2=0.02145
+ C= {Cpar}
+ K1=0.00005
+ K2=0.41
+ K3= {Ind}
+ K4=0.004
+ K5=0.000008
+ L=1.5455E-06
+ Is=22.4544
+ a=0.5738
+ L_Z0=0
+ L_EL=0
+ L_F0=0E6
+ PkZ=3400.94442
.ends XAL4020-152_sat

*======================================================================
* SPICE Model generated by Coilcraft
* Coilcraft Part Number : XAL4020-222
* Inductance = 2.2uH
*======================================================================
* Model Parameters:
*   Valid Frequency Range = 0.1MHz-100MHz
*   Ambient Temperature = 25 degC
*   Inductor Frequency Model
*   Use model for Frequency Domain simulations
*======================================================================
.subckt XAL4020-222_freq port1 port2 PARAMS: Cpar=4.7pF Ind=2.2uH
X1 port1 port2 Model1A PARAMS:
+ R1=100
+ R2=0.0352
+ C= {Cpar}
+ K1=0.00016
+ K2=0.48
+ K3= {Ind}
+ K4=0.01
+ K5=0.000008
+ L=2.3033E-06
+ Is=17.1029
+ a=0.6171
+ L_Z0=0
+ L_EL=0
+ L_F0=0E6
+ PkZ=1951.37918
.ends XAL4020-222_freq

*======================================================================
* SPICE Model generated by Coilcraft
* Coilcraft Part Number : XAL4020-222
* Inductance = 2.2uH
*======================================================================
* Model Parameters:
*   Valid Frequency Range = 0.1MHz-100MHz
*   Ambient Temperature = 25 degC
*   Inductor Saturation Model
*   Use model for Time Domain simulations
*======================================================================
.subckt XAL4020-222_sat port1 port2 PARAMS: Cpar=4.572pF Ind=2.2uH
X1 port1 port2 Model1C PARAMS:
+ R1=100
+ R2=0.0352
+ C= {Cpar}
+ K1=0.00016
+ K2=0.48
+ K3= {Ind}
+ K4=0.01
+ K5=0.000008
+ L=2.3033E-06
+ Is=17.1029
+ a=0.6171
+ L_Z0=0
+ L_EL=0
+ L_F0=0E6
+ PkZ=1951.37918
.ends XAL4020-222_sat

*======================================================================
* SPICE Model generated by Coilcraft
* Coilcraft Part Number : XAL4030-332
* Inductance = 3.3uH
*======================================================================
* Model Parameters:
*   Valid Frequency Range = 0.1MHz-200MHz
*   Ambient Temperature = 25 degC
*   Inductor Frequency Model
*   Use model for Frequency Domain simulations
*======================================================================
.subckt XAL4030-332_freq port1 port2 PARAMS: Cpar=4.7pF Ind=3.3uH
X1 port1 port2 Model1A PARAMS:
+ R1=7.5
+ R2=0.026
+ C= {Cpar}
+ K1=0.0001
+ K2=0.35
+ K3= {Ind}
+ K4=0.007
+ K5=0.0000065
+ L=2.9831E-06
+ Is=14.4209
+ a=0.6657
+ L_Z0=0
+ L_EL=0
+ L_F0=0E6
+ PkZ=2174.70874
.ends XAL4030-332_freq

*======================================================================
* SPICE Model generated by Coilcraft
* Coilcraft Part Number : XAL4030-332
* Inductance = 3.3uH
*======================================================================
* Model Parameters:
*   Valid Frequency Range = 0.1MHz-200MHz
*   Ambient Temperature = 25 degC
*   Inductor Saturation Model
*   Use model for Time Domain simulations
*======================================================================
.subckt XAL4030-332_sat port1 port2 PARAMS: Cpar=4.644pF Ind=3.3uH
X1 port1 port2 Model1C PARAMS:
+ R1=7.5
+ R2=0.026
+ C= {Cpar}
+ K1=0.0001
+ K2=0.35
+ K3= {Ind}
+ K4=0.007
+ K5=0.0000065
+ L=2.9831E-06
+ Is=14.4209
+ a=0.6657
+ L_Z0=0
+ L_EL=0
+ L_F0=0E6
+ PkZ=2174.70874
.ends XAL4030-332_sat

*======================================================================
* SPICE Model generated by Coilcraft
* Coilcraft Part Number : XAL4030-472
* Inductance = 4.7uH
*======================================================================
* Model Parameters:
*   Valid Frequency Range = 0.1MHz-100MHz
*   Ambient Temperature = 25 degC
*   Inductor Frequency Model
*   Use model for Frequency Domain simulations
*======================================================================
.subckt XAL4030-472_freq port1 port2 PARAMS: Cpar=3pF Ind=4.7uH
X1 port1 port2 Model1A PARAMS:
+ R1=6
+ R2=0.0401
+ C= {Cpar}
+ K1=0.0003
+ K2=1.5
+ K3= {Ind}
+ K4=0.009
+ K5=0.000008
+ L=4.5068E-06
+ Is=10.6466
+ a=0.678
+ L_Z0=0
+ L_EL=0
+ L_F0=0E6
+ PkZ=9323.94369
.ends XAL4030-472_freq

*======================================================================
* SPICE Model generated by Coilcraft
* Coilcraft Part Number : XAL4030-472
* Inductance = 4.7uH
*======================================================================
* Model Parameters:
*   Valid Frequency Range = 0.1MHz-100MHz
*   Ambient Temperature = 25 degC
*   Inductor Saturation Model
*   Use model for Time Domain simulations
*======================================================================
.subckt XAL4030-472_sat port1 port2 PARAMS: Cpar=2.967pF Ind=4.7uH
X1 port1 port2 Model1C PARAMS:
+ R1=6
+ R2=0.0401
+ C= {Cpar}
+ K1=0.0003
+ K2=1.5
+ K3= {Ind}
+ K4=0.009
+ K5=0.000008
+ L=4.5068E-06
+ Is=10.6466
+ a=0.678
+ L_Z0=0
+ L_EL=0
+ L_F0=0E6
+ PkZ=9323.94369
.ends XAL4030-472_sat

*======================================================================
* SPICE Model generated by Coilcraft
* Coilcraft Part Number : XAL4030-682
* Inductance = 6.8uH
*======================================================================
* Model Parameters:
*   Valid Frequency Range = 0.1MHz-90MHz
*   Ambient Temperature = 25 degC
*   Inductor Frequency Model
*   Use model for Frequency Domain simulations
*======================================================================
.subckt XAL4030-682_freq port1 port2 PARAMS: Cpar=7.6pF Ind=6.8uH
X1 port1 port2 Model1A PARAMS:
+ R1=5
+ R2=0.0674
+ C= {Cpar}
+ K1=0.00075
+ K2=2
+ K3= {Ind}
+ K4=0.008
+ K5=0.000005
+ L=6.7534E-06
+ Is=12.8351
+ a=0.5406
+ L_Z0=0
+ L_EL=0
+ L_F0=0E6
+ PkZ=8642.48399
.ends XAL4030-682_freq

*======================================================================
* SPICE Model generated by Coilcraft
* Coilcraft Part Number : XAL4030-682
* Inductance = 6.8uH
*======================================================================
* Model Parameters:
*   Valid Frequency Range = 0.1MHz-90MHz
*   Ambient Temperature = 25 degC
*   Inductor Saturation Model
*   Use model for Time Domain simulations
*======================================================================
.subckt XAL4030-682_sat port1 port2 PARAMS: Cpar=7.558pF Ind=6.8uH
X1 port1 port2 Model1C PARAMS:
+ R1=5
+ R2=0.0674
+ C= {Cpar}
+ K1=0.00075
+ K2=2
+ K3= {Ind}
+ K4=0.008
+ K5=0.000005
+ L=6.7534E-06
+ Is=12.8351
+ a=0.5406
+ L_Z0=0
+ L_EL=0
+ L_F0=0E6
+ PkZ=8642.48399
.ends XAL4030-682_sat

*======================================================================
* SPICE Model generated by Coilcraft
* Coilcraft Part Number : XAL4040-822
* Inductance = 8.2uH
*======================================================================
* Model Parameters:
*   Valid Frequency Range = 0.1MHz-40MHz
*   Ambient Temperature = 25 degC
*   Inductor Frequency Model
*   Use model for Frequency Domain simulations
*======================================================================
.subckt XAL4040-822_freq port1 port2 PARAMS: Cpar=5.72pF Ind=8.2uH
X1 port1 port2 Model1A PARAMS:
+ R1=35
+ R2=0.0608
+ C= {Cpar}
+ K1=0.0001
+ K2=1.15
+ K3= {Ind}
+ K4=0.09
+ K5=0.0000097
+ L=8.3712E-06
+ Is=8.9605
+ a=0.6379
+ L_Z0=0
+ L_EL=0
+ L_F0=0E6
+ PkZ=4903.46638
.ends XAL4040-822_freq

*======================================================================
* SPICE Model generated by Coilcraft
* Coilcraft Part Number : XAL4040-822
* Inductance = 8.2uH
*======================================================================
* Model Parameters:
*   Valid Frequency Range = 0.1MHz-40MHz
*   Ambient Temperature = 25 degC
*   Inductor Saturation Model
*   Use model for Time Domain simulations
*======================================================================
.subckt XAL4040-822_sat port1 port2 PARAMS: Cpar=5.38pF Ind=8.2uH
X1 port1 port2 Model1C PARAMS:
+ R1=35
+ R2=0.0608
+ C= {Cpar}
+ K1=0.0001
+ K2=1.15
+ K3= {Ind}
+ K4=0.09
+ K5=0.0000097
+ L=8.3712E-06
+ Is=8.9605
+ a=0.6379
+ L_Z0=0
+ L_EL=0
+ L_F0=0E6
+ PkZ=4903.46638
.ends XAL4040-822_sat

*======================================================================
* SPICE Model generated by Coilcraft
* Coilcraft Part Number : XAL4040-103
* Inductance = 10uH
*======================================================================
* Model Parameters:
*   Valid Frequency Range = 0.1MHz-40MHz
*   Ambient Temperature = 25 degC
*   Inductor Frequency Model
*   Use model for Frequency Domain simulations
*======================================================================
.subckt XAL4040-103_freq port1 port2 PARAMS: Cpar=5.71pF Ind=10uH
X1 port1 port2 Model1A PARAMS:
+ R1=35
+ R2=0.084
+ C= {Cpar}
+ K1=0.00015
+ K2=1.3
+ K3= {Ind}
+ K4=0.1
+ K5=0.0000096
+ L=1.0865E-05
+ Is=6.9529
+ a=0.6851
+ L_Z0=0
+ L_EL=0
+ L_F0=0E6
+ PkZ=5351.84263
.ends XAL4040-103_freq

*======================================================================
* SPICE Model generated by Coilcraft
* Coilcraft Part Number : XAL4040-103
* Inductance = 10uH
*======================================================================
* Model Parameters:
*   Valid Frequency Range = 0.1MHz-40MHz
*   Ambient Temperature = 25 degC
*   Inductor Saturation Model
*   Use model for Time Domain simulations
*======================================================================
.subckt XAL4040-103_sat port1 port2 PARAMS: Cpar=5.407pF Ind=10uH
X1 port1 port2 Model1C PARAMS:
+ R1=35
+ R2=0.084
+ C= {Cpar}
+ K1=0.00015
+ K2=1.3
+ K3= {Ind}
+ K4=0.1
+ K5=0.0000096
+ L=1.0865E-05
+ Is=6.9529
+ a=0.6851
+ L_Z0=0
+ L_EL=0
+ L_F0=0E6
+ PkZ=5351.84263
.ends XAL4040-103_sat

*======================================================================
* SPICE Model generated by Coilcraft
* Coilcraft Part Number : XAL4040-153
* Inductance = 15uH
*======================================================================
* Model Parameters:
*   Valid Frequency Range = 0.1MHz-30MHz
*   Ambient Temperature = 25 degC
*   Inductor Frequency Model
*   Use model for Frequency Domain simulations
*======================================================================
.subckt XAL4040-153_freq port1 port2 PARAMS: Cpar=5.61pF Ind=15uH
X1 port1 port2 Model1A PARAMS:
+ R1=35
+ R2=0.109
+ C= {Cpar}
+ K1=0.0001
+ K2=1.9
+ K3= {Ind}
+ K4=0.11
+ K5=0.0000096
+ L=1.3821E-05
+ Is=7.1038
+ a=0.6732
+ L_Z0=0
+ L_EL=0
+ L_F0=0E6
+ PkZ=7198.86827
.ends XAL4040-153_freq

*======================================================================
* SPICE Model generated by Coilcraft
* Coilcraft Part Number : XAL4040-153
* Inductance = 15uH
*======================================================================
* Model Parameters:
*   Valid Frequency Range = 0.1MHz-30MHz
*   Ambient Temperature = 25 degC
*   Inductor Saturation Model
*   Use model for Time Domain simulations
*======================================================================
.subckt XAL4040-153_sat port1 port2 PARAMS: Cpar=5.4pF Ind=15uH
X1 port1 port2 Model1C PARAMS:
+ R1=35
+ R2=0.109
+ C= {Cpar}
+ K1=0.0001
+ K2=1.9
+ K3= {Ind}
+ K4=0.11
+ K5=0.0000096
+ L=1.3821E-05
+ Is=7.1038
+ a=0.6732
+ L_Z0=0
+ L_EL=0
+ L_F0=0E6
+ PkZ=7198.86827
.ends XAL4040-153_sat

*======================================================================
* SPICE Model generated by Coilcraft
* Coilcraft Saturation Inductor Model
*======================================================================
* Model Parameters:
*   Valid Frequency Range Varies by Inductor
*   Ambient Temperature = 25 degC
*   Current Saturable Inductor Model
*======================================================================
.subckt Model1C Lin Lout PARAMS:
+ R1=1
+ R2=1
+ C=1
+ L=1
+ Is=1
+ a=1
+ PkZ=94.2 * {L} *1e6
R2 Lin N001 {R2}
R3 N001 Lout {PkZ}
C1 N001 N002 {C}
R1 N002 Lout {R1}
L1 N001 Lout flux={L*Is}*pwrs(tanh(pwrs((x/{Is}),{a})),{1/a})
.ends Model1C





*======================================================================
* SPICE Model generated by Coilcraft
* Coilcraft Power Inductor Model
*======================================================================
* Model Parameters:
*   Valid Frequency Range Varies by Inductor
*   Ambient Temperature = 25 degC
*   DC Bias Current = 0 A
*   Frequency Dependent Inductor Model
*======================================================================
.subckt Model1A Lin Lout PARAMS:
+ R1=1
+ R2=1
+ C=1
+ K1=1
+ K2=1
+ K3=1
+ K4=1
+ K5=1
R2 N001 Lin {R2}
R1 Lout N002 {R1}
C1 N002 N001 {C}
G_Rvar2 N001 Lout LAPLACE { V(N001, Lout) } {1/K2/(-S*S/4/PI^2)^0.25}
G_Rvar1 N001 N003 LAPLACE { V(N001, N003) } {1/K1/(-S*S/4/PI^2)^0.25}
G_Lvar N003 Lout  LAPLACE { V(N003, Lout) } {1/(S*1e-6*({K3*1e6}-({K4}*LOG({K5}*(sqrt(-S*S)/(2*pi))))))}
*This large resistance to ground has been added to prevent a floating node error
R3 N003 0 100Meg
.ends Model1A


.subckt Coilcraft_Inductor Lin Lout
R1 Lout Lin 100Meg
.ends Coilcraft_Inductor
