*======================================================================
* SPICE Model generated by Coilcraft
* Coilcraft Part Number : XAL5020-161
* Inductance = 160nH
*======================================================================
* Model Parameters:
*   Valid Frequency Range = 0.1MHz-300MHz
*   Ambient Temperature = 25 degC
*   Inductor Frequency Model
*   Use model for Frequency Domain simulations
*======================================================================
.subckt XAL5020-161_freq port1 port2 PARAMS: Cpar=4.18pF Ind=0.16uH
X1 port1 port2 Model1A PARAMS:
+ R1=15.4
+ R2=0.00411
+ C= {Cpar}
+ K1=0.000001
+ K2=0.0165
+ K3= {Ind}
+ K4=0.000001
+ K5=0.000001
+ L=1.618E-07
+ Is=59.2159
+ a=0.6687
+ L_Z0=0
+ L_EL=0
+ L_F0=0E6
+ PkZ=210.765755
.ends XAL5020-161_freq

*======================================================================
* SPICE Model generated by Coilcraft
* Coilcraft Part Number : XAL5020-161
* Inductance = 160nH
*======================================================================
* Model Parameters:
*   Valid Frequency Range = 0.1MHz-300MHz
*   Ambient Temperature = 25 degC
*   Inductor Saturation Model
*   Use model for Time Domain simulations
*======================================================================
.subckt XAL5020-161_sat port1 port2 PARAMS: Cpar=4.18pF Ind=0.16uH
X1 port1 port2 Model1C PARAMS:
+ R1=15.4
+ R2=0.00411
+ C= {Cpar}
+ K1=0.000001
+ K2=0.0165
+ K3= {Ind}
+ K4=0.000001
+ K5=0.000001
+ L=1.618E-07
+ Is=59.2159
+ a=0.6687
+ L_Z0=0
+ L_EL=0
+ L_F0=0E6
+ PkZ=210.765755
.ends XAL5020-161_sat

*======================================================================
* SPICE Model generated by Coilcraft
* Coilcraft Part Number : XAL5020-331
* Inductance = 330nH
*======================================================================
* Model Parameters:
*   Valid Frequency Range = 0.1MHz-300MHz
*   Ambient Temperature = 25 degC
*   Inductor Frequency Model
*   Use model for Frequency Domain simulations
*======================================================================
.subckt XAL5020-331_freq port1 port2 PARAMS: Cpar=4.9pF Ind=0.33uH
X1 port1 port2 Model1A PARAMS:
+ R1=8.4
+ R2=0.0064
+ C= {Cpar}
+ K1=0.000001
+ K2=0.0401
+ K3= {Ind}
+ K4=0.002
+ K5=0.0001
+ L=3.671E-07
+ Is=45.8529
+ a=0.683
+ L_Z0=0
+ L_EL=0
+ L_F0=0E6
+ PkZ=429.407584
.ends XAL5020-331_freq

*======================================================================
* SPICE Model generated by Coilcraft
* Coilcraft Part Number : XAL5020-331
* Inductance = 330nH
*======================================================================
* Model Parameters:
*   Valid Frequency Range = 0.1MHz-300MHz
*   Ambient Temperature = 25 degC
*   Inductor Saturation Model
*   Use model for Time Domain simulations
*======================================================================
.subckt XAL5020-331_sat port1 port2 PARAMS: Cpar=4.62pF Ind=0.33uH
X1 port1 port2 Model1C PARAMS:
+ R1=8.4
+ R2=0.0064
+ C= {Cpar}
+ K1=0.000001
+ K2=0.0401
+ K3= {Ind}
+ K4=0.002
+ K5=0.0001
+ L=3.671E-07
+ Is=45.8529
+ a=0.683
+ L_Z0=0
+ L_EL=0
+ L_F0=0E6
+ PkZ=429.407584
.ends XAL5020-331_sat

*======================================================================
* SPICE Model generated by Coilcraft
* Coilcraft Part Number : XAL5020-561
* Inductance = 560nH
*======================================================================
* Model Parameters:
*   Valid Frequency Range = 0.1MHz-300MHz
*   Ambient Temperature = 25 degC
*   Inductor Frequency Model
*   Use model for Frequency Domain simulations
*======================================================================
.subckt XAL5020-561_freq port1 port2 PARAMS: Cpar=9.17pF Ind=0.56uH
X1 port1 port2 Model1A PARAMS:
+ R1=6.6
+ R2=0.0083
+ C= {Cpar}
+ K1=0.000001
+ K2=0.155
+ K3= {Ind}
+ K4=0.000001
+ K5=0.000001
+ L=6.052E-07
+ Is=37.7958
+ a=0.671
+ L_Z0=0
+ L_EL=0
+ L_F0=0E6
+ PkZ=1138.99398
.ends XAL5020-561_freq

*======================================================================
* SPICE Model generated by Coilcraft
* Coilcraft Part Number : XAL5020-561
* Inductance = 560nH
*======================================================================
* Model Parameters:
*   Valid Frequency Range = 0.1MHz-300MHz
*   Ambient Temperature = 25 degC
*   Inductor Saturation Model
*   Use model for Time Domain simulations
*======================================================================
.subckt XAL5020-561_sat port1 port2 PARAMS: Cpar=9.17pF Ind=0.56uH
X1 port1 port2 Model1C PARAMS:
+ R1=6.6
+ R2=0.0083
+ C= {Cpar}
+ K1=0.000001
+ K2=0.155
+ K3= {Ind}
+ K4=0.000001
+ K5=0.000001
+ L=6.052E-07
+ Is=37.7958
+ a=0.671
+ L_Z0=0
+ L_EL=0
+ L_F0=0E6
+ PkZ=1138.99398
.ends XAL5020-561_sat

*======================================================================
* SPICE Model generated by Coilcraft
* Coilcraft Part Number : XAL5020-801
* Inductance = 800nH
*======================================================================
* Model Parameters:
*   Valid Frequency Range = 0.1MHz-300MHz
*   Ambient Temperature = 25 degC
*   Inductor Frequency Model
*   Use model for Frequency Domain simulations
*======================================================================
.subckt XAL5020-801_freq port1 port2 PARAMS: Cpar=5.97pF Ind=0.8uH
X1 port1 port2 Model1A PARAMS:
+ R1=8.4
+ R2=0.0103
+ C= {Cpar}
+ K1=0.000001
+ K2=0.1
+ K3= {Ind}
+ K4=0.000001
+ K5=0.000001
+ L=8.376E-07
+ Is=35.0543
+ a=0.6662
+ L_Z0=0
+ L_EL=0
+ L_F0=0E6
+ PkZ=810.040354
.ends XAL5020-801_freq

*======================================================================
* SPICE Model generated by Coilcraft
* Coilcraft Part Number : XAL5020-801
* Inductance = 800nH
*======================================================================
* Model Parameters:
*   Valid Frequency Range = 0.1MHz-300MHz
*   Ambient Temperature = 25 degC
*   Inductor Saturation Model
*   Use model for Time Domain simulations
*======================================================================
.subckt XAL5020-801_sat port1 port2 PARAMS: Cpar=5.97pF Ind=0.8uH
X1 port1 port2 Model1C PARAMS:
+ R1=8.4
+ R2=0.0103
+ C= {Cpar}
+ K1=0.000001
+ K2=0.1
+ K3= {Ind}
+ K4=0.000001
+ K5=0.000001
+ L=8.376E-07
+ Is=35.0543
+ a=0.6662
+ L_Z0=0
+ L_EL=0
+ L_F0=0E6
+ PkZ=810.040354
.ends XAL5020-801_sat

*======================================================================
* SPICE Model generated by Coilcraft
* Coilcraft Part Number : XAL5020-122
* Inductance = 1.2uH
*======================================================================
* Model Parameters:
*   Valid Frequency Range = 0.1MHz-300MHz
*   Ambient Temperature = 25 degC
*   Inductor Frequency Model
*   Use model for Frequency Domain simulations
*======================================================================
.subckt XAL5020-122_freq port1 port2 PARAMS: Cpar=8.61pF Ind=1.2uH
X1 port1 port2 Model1A PARAMS:
+ R1=7
+ R2=0.0178
+ C= {Cpar}
+ K1=0.000001
+ K2=0.389
+ K3= {Ind}
+ K4=0.000001
+ K5=0.000001
+ L=1.2598E-06
+ Is=29.3518
+ a=0.6416
+ L_Z0=0
+ L_EL=0
+ L_F0=0E6
+ PkZ=2406.23726
.ends XAL5020-122_freq

*======================================================================
* SPICE Model generated by Coilcraft
* Coilcraft Part Number : XAL5020-122
* Inductance = 1.2uH
*======================================================================
* Model Parameters:
*   Valid Frequency Range = 0.1MHz-300MHz
*   Ambient Temperature = 25 degC
*   Inductor Saturation Model
*   Use model for Time Domain simulations
*======================================================================
.subckt XAL5020-122_sat port1 port2 PARAMS: Cpar=8.61pF Ind=1.2uH
X1 port1 port2 Model1C PARAMS:
+ R1=7
+ R2=0.0178
+ C= {Cpar}
+ K1=0.000001
+ K2=0.389
+ K3= {Ind}
+ K4=0.000001
+ K5=0.000001
+ L=1.2598E-06
+ Is=29.3518
+ a=0.6416
+ L_Z0=0
+ L_EL=0
+ L_F0=0E6
+ PkZ=2406.23726
.ends XAL5020-122_sat

*======================================================================
* SPICE Model generated by Coilcraft
* Coilcraft Saturation Inductor Model
*======================================================================
* Model Parameters:
*   Valid Frequency Range Varies by Inductor
*   Ambient Temperature = 25 degC
*   Current Saturable Inductor Model
*======================================================================
.subckt Model1C Lin Lout PARAMS:
+ R1=1
+ R2=1
+ C=1
+ L=1
+ Is=1
+ a=1
+ PkZ=94.2 * {L} *1e6
R2 Lin N001 {R2}
R3 N001 Lout {PkZ}
C1 N001 N002 {C}
R1 N002 Lout {R1}
L1 N001 Lout flux={L*Is}*pwrs(tanh(pwrs((x/{Is}),{a})),{1/a})
.ends Model1C





*======================================================================
* SPICE Model generated by Coilcraft
* Coilcraft Power Inductor Model
*======================================================================
* Model Parameters:
*   Valid Frequency Range Varies by Inductor
*   Ambient Temperature = 25 degC
*   DC Bias Current = 0 A
*   Frequency Dependent Inductor Model
*======================================================================
.subckt Model1A Lin Lout PARAMS:
+ R1=1
+ R2=1
+ C=1
+ K1=1
+ K2=1
+ K3=1
+ K4=1
+ K5=1
R2 N001 Lin {R2}
R1 Lout N002 {R1}
C1 N002 N001 {C}
G_Rvar2 N001 Lout LAPLACE { V(N001, Lout) } {1/K2/(-S*S/4/PI^2)^0.25}
G_Rvar1 N001 N003 LAPLACE { V(N001, N003) } {1/K1/(-S*S/4/PI^2)^0.25}
G_Lvar N003 Lout  LAPLACE { V(N003, Lout) } {1/(S*1e-6*({K3*1e6}-({K4}*LOG({K5}*(sqrt(-S*S)/(2*pi))))))}
*This large resistance to ground has been added to prevent a floating node error
R3 N003 0 100Meg
.ends Model1A


.subckt Coilcraft_Inductor Lin Lout
R1 Lout Lin 100Meg
.ends Coilcraft_Inductor
