*======================================================================
* SPICE Model generated by Coilcraft
* Coilcraft Part Number : XAL5030-161
* Inductance = 160nH
*======================================================================
* Model Parameters:
*   Valid Frequency Range = 0.1MHz-300MHz
*   Ambient Temperature = 25 degC
*   Inductor Frequency Model
*   Use model for Frequency Domain simulations
*======================================================================
.subckt XAL5030-161_freq port1 port2 PARAMS: Cpar=4.3pF Ind=0.16uH
X1 port1 port2 Model1A PARAMS:
+ R1=5
+ R2=0.00215
+ C= {Cpar}
+ K1=0.00005
+ K2=0.016
+ K3= {Ind}
+ K4=0.001
+ K5=0.000005
+ L=1.726E-07
+ Is=71.5385
+ a=0.6976
+ L_Z0=0
+ L_EL=0
+ L_F0=0E6
+ PkZ=216.323863
.ends XAL5030-161_freq

*======================================================================
* SPICE Model generated by Coilcraft
* Coilcraft Part Number : XAL5030-161
* Inductance = 160nH
*======================================================================
* Model Parameters:
*   Valid Frequency Range = 0.1MHz-300MHz
*   Ambient Temperature = 25 degC
*   Inductor Saturation Model
*   Use model for Time Domain simulations
*======================================================================
.subckt XAL5030-161_sat port1 port2 PARAMS: Cpar=4.115pF Ind=0.16uH
X1 port1 port2 Model1C PARAMS:
+ R1=5
+ R2=0.00215
+ C= {Cpar}
+ K1=0.00005
+ K2=0.016
+ K3= {Ind}
+ K4=0.001
+ K5=0.000005
+ L=1.726E-07
+ Is=71.5385
+ a=0.6976
+ L_Z0=0
+ L_EL=0
+ L_F0=0E6
+ PkZ=216.323863
.ends XAL5030-161_sat

*======================================================================
* SPICE Model generated by Coilcraft
* Coilcraft Part Number : XAL5030-331
* Inductance = 330nH
*======================================================================
* Model Parameters:
*   Valid Frequency Range = 0.1MHz-300MHz
*   Ambient Temperature = 25 degC
*   Inductor Frequency Model
*   Use model for Frequency Domain simulations
*======================================================================
.subckt XAL5030-331_freq port1 port2 PARAMS: Cpar=8.7pF Ind=0.33uH
X1 port1 port2 Model1A PARAMS:
+ R1=10
+ R2=0.0032
+ C= {Cpar}
+ K1=0.000025
+ K2=0.038
+ K3= {Ind}
+ K4=0.00075
+ K5=0.000006
+ L=3.82E-07
+ Is=44.1792
+ a=0.6951
+ L_Z0=0
+ L_EL=0
+ L_F0=0E6
+ PkZ=335.71278
.ends XAL5030-331_freq

*======================================================================
* SPICE Model generated by Coilcraft
* Coilcraft Part Number : XAL5030-331
* Inductance = 330nH
*======================================================================
* Model Parameters:
*   Valid Frequency Range = 0.1MHz-300MHz
*   Ambient Temperature = 25 degC
*   Inductor Saturation Model
*   Use model for Time Domain simulations
*======================================================================
.subckt XAL5030-331_sat port1 port2 PARAMS: Cpar=8.575pF Ind=0.33uH
X1 port1 port2 Model1C PARAMS:
+ R1=10
+ R2=0.0032
+ C= {Cpar}
+ K1=0.000025
+ K2=0.038
+ K3= {Ind}
+ K4=0.00075
+ K5=0.000006
+ L=3.82E-07
+ Is=44.1792
+ a=0.6951
+ L_Z0=0
+ L_EL=0
+ L_F0=0E6
+ PkZ=335.71278
.ends XAL5030-331_sat

*======================================================================
* SPICE Model generated by Coilcraft
* Coilcraft Part Number : XAL5030-601
* Inductance = 600nH
*======================================================================
* Model Parameters:
*   Valid Frequency Range = 0.1MHz-200MHz
*   Ambient Temperature = 25 degC
*   Inductor Frequency Model
*   Use model for Frequency Domain simulations
*======================================================================
.subckt XAL5030-601_freq port1 port2 PARAMS: Cpar=6.9pF Ind=0.6uH
X1 port1 port2 Model1A PARAMS:
+ R1=10
+ R2=0.00411
+ C= {Cpar}
+ K1=0.00005
+ K2=0.059
+ K3= {Ind}
+ K4=0.0005
+ K5=0.000001
+ L=5.849E-07
+ Is=40.8572
+ a=0.6739
+ L_Z0=0
+ L_EL=0
+ L_F0=0E6
+ PkZ=491.389182
.ends XAL5030-601_freq

*======================================================================
* SPICE Model generated by Coilcraft
* Coilcraft Part Number : XAL5030-601
* Inductance = 600nH
*======================================================================
* Model Parameters:
*   Valid Frequency Range = 0.1MHz-200MHz
*   Ambient Temperature = 25 degC
*   Inductor Saturation Model
*   Use model for Time Domain simulations
*======================================================================
.subckt XAL5030-601_sat port1 port2 PARAMS: Cpar=6.875pF Ind=0.6uH
X1 port1 port2 Model1C PARAMS:
+ R1=10
+ R2=0.00411
+ C= {Cpar}
+ K1=0.00005
+ K2=0.059
+ K3= {Ind}
+ K4=0.0005
+ K5=0.000001
+ L=5.849E-07
+ Is=40.8572
+ a=0.6739
+ L_Z0=0
+ L_EL=0
+ L_F0=0E6
+ PkZ=491.389182
.ends XAL5030-601_sat

*======================================================================
* SPICE Model generated by Coilcraft
* Coilcraft Part Number : XAL5030-801
* Inductance = 800nH
*======================================================================
* Model Parameters:
*   Valid Frequency Range = 0.1MHz-200MHz
*   Ambient Temperature = 25 degC
*   Inductor Frequency Model
*   Use model for Frequency Domain simulations
*======================================================================
.subckt XAL5030-801_freq port1 port2 PARAMS: Cpar=8.5pF Ind=0.8uH
X1 port1 port2 Model1A PARAMS:
+ R1=10
+ R2=0.00514
+ C= {Cpar}
+ K1=0.0001
+ K2=0.092
+ K3= {Ind}
+ K4=0.002
+ K5=0.000004
+ L=8.362E-07
+ Is=35.8739
+ a=0.6918
+ L_Z0=0
+ L_EL=0
+ L_F0=0E6
+ PkZ=665.524201
.ends XAL5030-801_freq

*======================================================================
* SPICE Model generated by Coilcraft
* Coilcraft Part Number : XAL5030-801
* Inductance = 800nH
*======================================================================
* Model Parameters:
*   Valid Frequency Range = 0.1MHz-200MHz
*   Ambient Temperature = 25 degC
*   Inductor Saturation Model
*   Use model for Time Domain simulations
*======================================================================
.subckt XAL5030-801_sat port1 port2 PARAMS: Cpar=8.383pF Ind=0.8uH
X1 port1 port2 Model1C PARAMS:
+ R1=10
+ R2=0.00514
+ C= {Cpar}
+ K1=0.0001
+ K2=0.092
+ K3= {Ind}
+ K4=0.002
+ K5=0.000004
+ L=8.362E-07
+ Is=35.8739
+ a=0.6918
+ L_Z0=0
+ L_EL=0
+ L_F0=0E6
+ PkZ=665.524201
.ends XAL5030-801_sat

*======================================================================
* SPICE Model generated by Coilcraft
* Coilcraft Part Number : XAL5030-102
* Inductance = 1uH
*======================================================================
* Model Parameters:
*   Valid Frequency Range = 0.1MHz-200MHz
*   Ambient Temperature = 25 degC
*   Inductor Frequency Model
*   Use model for Frequency Domain simulations
*======================================================================
.subckt XAL5030-102_freq port1 port2 PARAMS: Cpar=7.6pF Ind=1uH
X1 port1 port2 Model1A PARAMS:
+ R1=10
+ R2=0.0085
+ C= {Cpar}
+ K1=0.0001
+ K2=0.11
+ K3= {Ind}
+ K4=0.005
+ K5=0.000006
+ L=1.0884E-06
+ Is=27.4709
+ a=0.731
+ L_Z0=0
+ L_EL=0
+ L_F0=0E6
+ PkZ=786.266353
.ends XAL5030-102_freq

*======================================================================
* SPICE Model generated by Coilcraft
* Coilcraft Part Number : XAL5030-102
* Inductance = 1uH
*======================================================================
* Model Parameters:
*   Valid Frequency Range = 0.1MHz-200MHz
*   Ambient Temperature = 25 degC
*   Inductor Saturation Model
*   Use model for Time Domain simulations
*======================================================================
.subckt XAL5030-102_sat port1 port2 PARAMS: Cpar=7.378pF Ind=1uH
X1 port1 port2 Model1C PARAMS:
+ R1=10
+ R2=0.0085
+ C= {Cpar}
+ K1=0.0001
+ K2=0.11
+ K3= {Ind}
+ K4=0.005
+ K5=0.000006
+ L=1.0884E-06
+ Is=27.4709
+ a=0.731
+ L_Z0=0
+ L_EL=0
+ L_F0=0E6
+ PkZ=786.266353
.ends XAL5030-102_sat

*======================================================================
* SPICE Model generated by Coilcraft
* Coilcraft Part Number : XAL5030-122
* Inductance = 1.2uH
*======================================================================
* Model Parameters:
*   Valid Frequency Range = 0.1MHz-150MHz
*   Ambient Temperature = 25 degC
*   Inductor Frequency Model
*   Use model for Frequency Domain simulations
*======================================================================
.subckt XAL5030-122_freq port1 port2 PARAMS: Cpar=10.3pF Ind=1.2uH
X1 port1 port2 Model1A PARAMS:
+ R1=7
+ R2=0.0114
+ C= {Cpar}
+ K1=0.0001
+ K2=0.39
+ K3= {Ind}
+ K4=0.000001
+ K5=0.000001
+ L=1.0078E-06
+ Is=30.235
+ a=0.7394
+ L_Z0=0
+ L_EL=0
+ L_F0=0E6
+ PkZ=2237.51401
.ends XAL5030-122_freq

*======================================================================
* SPICE Model generated by Coilcraft
* Coilcraft Part Number : XAL5030-122
* Inductance = 1.2uH
*======================================================================
* Model Parameters:
*   Valid Frequency Range = 0.1MHz-150MHz
*   Ambient Temperature = 25 degC
*   Inductor Saturation Model
*   Use model for Time Domain simulations
*======================================================================
.subckt XAL5030-122_sat port1 port2 PARAMS: Cpar=10.3pF Ind=1.2uH
X1 port1 port2 Model1C PARAMS:
+ R1=7
+ R2=0.0114
+ C= {Cpar}
+ K1=0.0001
+ K2=0.39
+ K3= {Ind}
+ K4=0.000001
+ K5=0.000001
+ L=1.0078E-06
+ Is=30.235
+ a=0.7394
+ L_Z0=0
+ L_EL=0
+ L_F0=0E6
+ PkZ=2237.51401
.ends XAL5030-122_sat

*======================================================================
* SPICE Model generated by Coilcraft
* Coilcraft Part Number : XAL5030-222
* Inductance = 2.2uH
*======================================================================
* Model Parameters:
*   Valid Frequency Range = 0.1MHz-100MHz
*   Ambient Temperature = 25 degC
*   Inductor Frequency Model
*   Use model for Frequency Domain simulations
*======================================================================
.subckt XAL5030-222_freq port1 port2 PARAMS: Cpar=11.2pF Ind=2.2uH
X1 port1 port2 Model1A PARAMS:
+ R1=50
+ R2=0.0132
+ C= {Cpar}
+ K1=0.00009
+ K2=0.55
+ K3= {Ind}
+ K4=0.016
+ K5=0.000009
+ L=2.6049E-06
+ Is=20.035
+ a=0.6862
+ L_Z0=0
+ L_EL=0
+ L_F0=0E6
+ PkZ=1714.45692
.ends XAL5030-222_freq

*======================================================================
* SPICE Model generated by Coilcraft
* Coilcraft Part Number : XAL5030-222
* Inductance = 2.2uH
*======================================================================
* Model Parameters:
*   Valid Frequency Range = 0.1MHz-100MHz
*   Ambient Temperature = 25 degC
*   Inductor Saturation Model
*   Use model for Time Domain simulations
*======================================================================
.subckt XAL5030-222_sat port1 port2 PARAMS: Cpar=10.739pF Ind=2.2uH
X1 port1 port2 Model1C PARAMS:
+ R1=50
+ R2=0.0132
+ C= {Cpar}
+ K1=0.00009
+ K2=0.55
+ K3= {Ind}
+ K4=0.016
+ K5=0.000009
+ L=2.6049E-06
+ Is=20.035
+ a=0.6862
+ L_Z0=0
+ L_EL=0
+ L_F0=0E6
+ PkZ=1714.45692
.ends XAL5030-222_sat

*======================================================================
* SPICE Model generated by Coilcraft
* Coilcraft Part Number : XAL5030-332
* Inductance = 3.3uH
*======================================================================
* Model Parameters:
*   Valid Frequency Range = 0.1MHz-100MHz
*   Ambient Temperature = 25 degC
*   Inductor Frequency Model
*   Use model for Frequency Domain simulations
*======================================================================
.subckt XAL5030-332_freq port1 port2 PARAMS: Cpar=4.6pF Ind=3.3uH
X1 port1 port2 Model1A PARAMS:
+ R1=5
+ R2=0.0212
+ C= {Cpar}
+ K1=0.00012
+ K2=0.77
+ K3= {Ind}
+ K4=0.004
+ K5=0.000007
+ L=3.4454E-06
+ Is=18.3339
+ a=0.6662
+ L_Z0=0
+ L_EL=0
+ L_F0=0E6
+ PkZ=4740.62293
.ends XAL5030-332_freq

*======================================================================
* SPICE Model generated by Coilcraft
* Coilcraft Part Number : XAL5030-332
* Inductance = 3.3uH
*======================================================================
* Model Parameters:
*   Valid Frequency Range = 0.1MHz-100MHz
*   Ambient Temperature = 25 degC
*   Inductor Saturation Model
*   Use model for Time Domain simulations
*======================================================================
.subckt XAL5030-332_sat port1 port2 PARAMS: Cpar=4.568pF Ind=3.3uH
X1 port1 port2 Model1C PARAMS:
+ R1=5
+ R2=0.0212
+ C= {Cpar}
+ K1=0.00012
+ K2=0.77
+ K3= {Ind}
+ K4=0.004
+ K5=0.000007
+ L=3.4454E-06
+ Is=18.3339
+ a=0.6662
+ L_Z0=0
+ L_EL=0
+ L_F0=0E6
+ PkZ=4740.62293
.ends XAL5030-332_sat

*======================================================================
* SPICE Model generated by Coilcraft
* Coilcraft Part Number : XAL5030-472
* Inductance = 4.7uH
*======================================================================
* Model Parameters:
*   Valid Frequency Range = 0.1MHz-200MHz
*   Ambient Temperature = 25 degC
*   Inductor Frequency Model
*   Use model for Frequency Domain simulations
*======================================================================
.subckt XAL5030-472_freq port1 port2 PARAMS: Cpar=2.7pF Ind=4.7uH
X1 port1 port2 Model1A PARAMS:
+ R1=5
+ R2=0.0327
+ C= {Cpar}
+ K1=0.000075
+ K2=1.14
+ K3= {Ind}
+ K4=0.009
+ K5=0.000009
+ L=5.3617E-06
+ Is=15.446
+ a=0.6883
+ L_Z0=0
+ L_EL=0
+ L_F0=0E6
+ PkZ=7459.67339
.ends XAL5030-472_freq

*======================================================================
* SPICE Model generated by Coilcraft
* Coilcraft Part Number : XAL5030-472
* Inductance = 4.7uH
*======================================================================
* Model Parameters:
*   Valid Frequency Range = 0.1MHz-200MHz
*   Ambient Temperature = 25 degC
*   Inductor Saturation Model
*   Use model for Time Domain simulations
*======================================================================
.subckt XAL5030-472_sat port1 port2 PARAMS: Cpar=2.669pF Ind=4.7uH
X1 port1 port2 Model1C PARAMS:
+ R1=5
+ R2=0.0327
+ C= {Cpar}
+ K1=0.000075
+ K2=1.14
+ K3= {Ind}
+ K4=0.009
+ K5=0.000009
+ L=5.3617E-06
+ Is=15.446
+ a=0.6883
+ L_Z0=0
+ L_EL=0
+ L_F0=0E6
+ PkZ=7459.67339
.ends XAL5030-472_sat

*======================================================================
* SPICE Model generated by Coilcraft
* Coilcraft Part Number : XAL5050-562
* Inductance = 5.6uH
*======================================================================
* Model Parameters:
*   Valid Frequency Range = 0.1MHz-100MHz
*   Ambient Temperature = 25 degC
*   Inductor Frequency Model
*   Use model for Frequency Domain simulations
*======================================================================
.subckt XAL5050-562_freq port1 port2 PARAMS: Cpar=4.6pF Ind=5.6uH
X1 port1 port2 Model1A PARAMS:
+ R1=5
+ R2=0.02345
+ C= {Cpar}
+ K1=0.0003
+ K2=1.5
+ K3= {Ind}
+ K4=0.009
+ K5=0.000008
+ L=5.6348E-06
+ Is=11.3749
+ a=0.8086
+ L_Z0=0
+ L_EL=0
+ L_F0=0E6
+ PkZ=8043.41199
.ends XAL5050-562_freq

*======================================================================
* SPICE Model generated by Coilcraft
* Coilcraft Part Number : XAL5050-562
* Inductance = 5.6uH
*======================================================================
* Model Parameters:
*   Valid Frequency Range = 0.1MHz-100MHz
*   Ambient Temperature = 25 degC
*   Inductor Saturation Model
*   Use model for Time Domain simulations
*======================================================================
.subckt XAL5050-562_sat port1 port2 PARAMS: Cpar=4.559pF Ind=5.6uH
X1 port1 port2 Model1C PARAMS:
+ R1=5
+ R2=0.02345
+ C= {Cpar}
+ K1=0.0003
+ K2=1.5
+ K3= {Ind}
+ K4=0.009
+ K5=0.000008
+ L=5.6348E-06
+ Is=11.3749
+ a=0.8086
+ L_Z0=0
+ L_EL=0
+ L_F0=0E6
+ PkZ=8043.41199
.ends XAL5050-562_sat

*======================================================================
* SPICE Model generated by Coilcraft
* Coilcraft Part Number : XAL5050-682
* Inductance = 6.8uH
*======================================================================
* Model Parameters:
*   Valid Frequency Range = 0.1MHz-90MHz
*   Ambient Temperature = 25 degC
*   Inductor Frequency Model
*   Use model for Frequency Domain simulations
*======================================================================
.subckt XAL5050-682_freq port1 port2 PARAMS: Cpar=7.6pF Ind=6.8uH
X1 port1 port2 Model1A PARAMS:
+ R1=5
+ R2=0.02675
+ C= {Cpar}
+ K1=0.0009
+ K2=2
+ K3= {Ind}
+ K4=0.005
+ K5=0.000003
+ L=6.9261E-06
+ Is=10.1484
+ a=0.7779
+ L_Z0=0
+ L_EL=0
+ L_F0=0E6
+ PkZ=8580.8072
.ends XAL5050-682_freq

*======================================================================
* SPICE Model generated by Coilcraft
* Coilcraft Part Number : XAL5050-682
* Inductance = 6.8uH
*======================================================================
* Model Parameters:
*   Valid Frequency Range = 0.1MHz-90MHz
*   Ambient Temperature = 25 degC
*   Inductor Saturation Model
*   Use model for Time Domain simulations
*======================================================================
.subckt XAL5050-682_sat port1 port2 PARAMS: Cpar=7.577pF Ind=6.8uH
X1 port1 port2 Model1C PARAMS:
+ R1=5
+ R2=0.02675
+ C= {Cpar}
+ K1=0.0009
+ K2=2
+ K3= {Ind}
+ K4=0.005
+ K5=0.000003
+ L=6.9261E-06
+ Is=10.1484
+ a=0.7779
+ L_Z0=0
+ L_EL=0
+ L_F0=0E6
+ PkZ=8580.8072
.ends XAL5050-682_sat

*======================================================================
* SPICE Model generated by Coilcraft
* Coilcraft Part Number : XAL5050-822
* Inductance = 8.2uH
*======================================================================
* Model Parameters:
*   Valid Frequency Range = 0.1MHz-100MHz
*   Ambient Temperature = 25 degC
*   Inductor Frequency Model
*   Use model for Frequency Domain simulations
*======================================================================
.subckt XAL5050-822_freq port1 port2 PARAMS: Cpar=8.9pF Ind=8.2uH
X1 port1 port2 Model1A PARAMS:
+ R1=15
+ R2=0.03175
+ C= {Cpar}
+ K1=0.000025
+ K2=0.91
+ K3= {Ind}
+ K4=0.008
+ K5=0.000007
+ L=8.1144E-06
+ Is=11.0389
+ a=0.7625
+ L_Z0=0
+ L_EL=0
+ L_F0=0E6
+ PkZ=3693.28568
.ends XAL5050-822_freq

*======================================================================
* SPICE Model generated by Coilcraft
* Coilcraft Part Number : XAL5050-822
* Inductance = 8.2uH
*======================================================================
* Model Parameters:
*   Valid Frequency Range = 0.1MHz-100MHz
*   Ambient Temperature = 25 degC
*   Inductor Saturation Model
*   Use model for Time Domain simulations
*======================================================================
.subckt XAL5050-822_sat port1 port2 PARAMS: Cpar=8.858pF Ind=8.2uH
X1 port1 port2 Model1C PARAMS:
+ R1=15
+ R2=0.03175
+ C= {Cpar}
+ K1=0.000025
+ K2=0.91
+ K3= {Ind}
+ K4=0.008
+ K5=0.000007
+ L=8.1144E-06
+ Is=11.0389
+ a=0.7625
+ L_Z0=0
+ L_EL=0
+ L_F0=0E6
+ PkZ=3693.28568
.ends XAL5050-822_sat

*======================================================================
* SPICE Model generated by Coilcraft
* Coilcraft Part Number : XAL5050-103
* Inductance = 10uH
*======================================================================
* Model Parameters:
*   Valid Frequency Range = 0.1MHz-100MHz
*   Ambient Temperature = 25 degC
*   Inductor Frequency Model
*   Use model for Frequency Domain simulations
*======================================================================
.subckt XAL5050-103_freq port1 port2 PARAMS: Cpar=8.9pF Ind=10uH
X1 port1 port2 Model1A PARAMS:
+ R1=15
+ R2=0.0409
+ C= {Cpar}
+ K1=0.000025
+ K2=1.2
+ K3= {Ind}
+ K4=0.009
+ K5=0.000007
+ L=1.0334E-05
+ Is=9.0449
+ a=0.7677
+ L_Z0=0
+ L_EL=0
+ L_F0=0E6
+ PkZ=4626.10247
.ends XAL5050-103_freq

*======================================================================
* SPICE Model generated by Coilcraft
* Coilcraft Part Number : XAL5050-103
* Inductance = 10uH
*======================================================================
* Model Parameters:
*   Valid Frequency Range = 0.1MHz-100MHz
*   Ambient Temperature = 25 degC
*   Inductor Saturation Model
*   Use model for Time Domain simulations
*======================================================================
.subckt XAL5050-103_sat port1 port2 PARAMS: Cpar=8.862pF Ind=10uH
X1 port1 port2 Model1C PARAMS:
+ R1=15
+ R2=0.0409
+ C= {Cpar}
+ K1=0.000025
+ K2=1.2
+ K3= {Ind}
+ K4=0.009
+ K5=0.000007
+ L=1.0334E-05
+ Is=9.0449
+ a=0.7677
+ L_Z0=0
+ L_EL=0
+ L_F0=0E6
+ PkZ=4626.10247
.ends XAL5050-103_sat

*======================================================================
* SPICE Model generated by Coilcraft
* Coilcraft Part Number : XAL5050-153
* Inductance = 15uH
*======================================================================
* Model Parameters:
*   Valid Frequency Range = 0.1MHz-60MHz
*   Ambient Temperature = 25 degC
*   Inductor Frequency Model
*   Use model for Frequency Domain simulations
*======================================================================
.subckt XAL5050-153_freq port1 port2 PARAMS: Cpar=10pF Ind=15uH
X1 port1 port2 Model1A PARAMS:
+ R1=15
+ R2=0.0697
+ C= {Cpar}
+ K1=0.000025
+ K2=1.9
+ K3= {Ind}
+ K4=0.001
+ K5=0.0000006
+ L=1.5614E-05
+ Is=7.7657
+ a=0.6937
+ L_Z0=0
+ L_EL=0
+ L_F0=0E6
+ PkZ=6407.97959
.ends XAL5050-153_freq

*======================================================================
* SPICE Model generated by Coilcraft
* Coilcraft Part Number : XAL5050-153
* Inductance = 15uH
*======================================================================
* Model Parameters:
*   Valid Frequency Range = 0.1MHz-60MHz
*   Ambient Temperature = 25 degC
*   Inductor Saturation Model
*   Use model for Time Domain simulations
*======================================================================
.subckt XAL5050-153_sat port1 port2 PARAMS: Cpar=9.999pF Ind=15uH
X1 port1 port2 Model1C PARAMS:
+ R1=15
+ R2=0.0697
+ C= {Cpar}
+ K1=0.000025
+ K2=1.9
+ K3= {Ind}
+ K4=0.001
+ K5=0.0000006
+ L=1.5614E-05
+ Is=7.7657
+ a=0.6937
+ L_Z0=0
+ L_EL=0
+ L_F0=0E6
+ PkZ=6407.97959
.ends XAL5050-153_sat

*======================================================================
* SPICE Model generated by Coilcraft
* Coilcraft Part Number : XAL5050-223
* Inductance = 22uH
*======================================================================
* Model Parameters:
*   Valid Frequency Range = 0.1MHz-80MHz
*   Ambient Temperature = 25 degC
*   Inductor Frequency Model
*   Use model for Frequency Domain simulations
*======================================================================
.subckt XAL5050-223_freq port1 port2 PARAMS: Cpar=8.2pF Ind=22uH
X1 port1 port2 Model1A PARAMS:
+ R1=6
+ R2=0.0906
+ C= {Cpar}
+ K1=0.002
+ K2=6.5
+ K3= {Ind}
+ K4=0.5
+ K5=0.00000975
+ L=2.1441E-05
+ Is=6.8515
+ a=0.7191
+ L_Z0=0
+ L_EL=0
+ L_F0=0E6
+ PkZ=20442.1181
.ends XAL5050-223_freq

*======================================================================
* SPICE Model generated by Coilcraft
* Coilcraft Part Number : XAL5050-223
* Inductance = 22uH
*======================================================================
* Model Parameters:
*   Valid Frequency Range = 0.1MHz-80MHz
*   Ambient Temperature = 25 degC
*   Inductor Saturation Model
*   Use model for Time Domain simulations
*======================================================================
.subckt XAL5050-223_sat port1 port2 PARAMS: Cpar=7.315pF Ind=22uH
X1 port1 port2 Model1C PARAMS:
+ R1=6
+ R2=0.0906
+ C= {Cpar}
+ K1=0.002
+ K2=6.5
+ K3= {Ind}
+ K4=0.5
+ K5=0.00000975
+ L=2.1441E-05
+ Is=6.8515
+ a=0.7191
+ L_Z0=0
+ L_EL=0
+ L_F0=0E6
+ PkZ=20442.1181
.ends XAL5050-223_sat

*======================================================================
* SPICE Model generated by Coilcraft
* Coilcraft Saturation Inductor Model
*======================================================================
* Model Parameters:
*   Valid Frequency Range Varies by Inductor
*   Ambient Temperature = 25 degC
*   Current Saturable Inductor Model
*======================================================================
.subckt Model1C Lin Lout PARAMS:
+ R1=1
+ R2=1
+ C=1
+ L=1
+ Is=1
+ a=1
+ PkZ=94.2 * {L} *1e6
R2 Lin N001 {R2}
R3 N001 Lout {PkZ}
C1 N001 N002 {C}
R1 N002 Lout {R1}
L1 N001 Lout flux={L*Is}*pwrs(tanh(pwrs((x/{Is}),{a})),{1/a})
.ends Model1C





*======================================================================
* SPICE Model generated by Coilcraft
* Coilcraft Power Inductor Model
*======================================================================
* Model Parameters:
*   Valid Frequency Range Varies by Inductor
*   Ambient Temperature = 25 degC
*   DC Bias Current = 0 A
*   Frequency Dependent Inductor Model
*======================================================================
.subckt Model1A Lin Lout PARAMS:
+ R1=1
+ R2=1
+ C=1
+ K1=1
+ K2=1
+ K3=1
+ K4=1
+ K5=1
R2 N001 Lin {R2}
R1 Lout N002 {R1}
C1 N002 N001 {C}
G_Rvar2 N001 Lout LAPLACE { V(N001, Lout) } {1/K2/(-S*S/4/PI^2)^0.25}
G_Rvar1 N001 N003 LAPLACE { V(N001, N003) } {1/K1/(-S*S/4/PI^2)^0.25}
G_Lvar N003 Lout  LAPLACE { V(N003, Lout) } {1/(S*1e-6*({K3*1e6}-({K4}*LOG({K5}*(sqrt(-S*S)/(2*pi))))))}
*This large resistance to ground has been added to prevent a floating node error
R3 N003 0 100Meg
.ends Model1A


.subckt Coilcraft_Inductor Lin Lout
R1 Lout Lin 100Meg
.ends Coilcraft_Inductor
