*======================================================================
* SPICE Model generated by Coilcraft
* Coilcraft Part Number : XAL6030-181
* Inductance = 180nH
*======================================================================
* Model Parameters:
*   Valid Frequency Range = 0.1MHz-200MHz
*   Ambient Temperature = 25 degC
*   Inductor Frequency Model
*   Use model for Frequency Domain simulations
*======================================================================
.subckt XAL6030-181_freq port1 port2 PARAMS: Cpar=7.8pF Ind=0.18uH
X1 port1 port2 Model1A PARAMS:
+ R1=7.5
+ R2=0.00159
+ C= {Cpar}
+ K1=0.000075
+ K2=0.021
+ K3= {Ind}
+ K4=0.001
+ K5=0.000002
+ L=1.822E-07
+ Is=118.8482
+ a=0.5611
+ L_Z0=0
+ L_EL=0
+ L_F0=0E6
+ PkZ=224.706565
.ends XAL6030-181_freq

*======================================================================
* SPICE Model generated by Coilcraft
* Coilcraft Part Number : XAL6030-181
* Inductance = 180nH
*======================================================================
* Model Parameters:
*   Valid Frequency Range = 0.1MHz-200MHz
*   Ambient Temperature = 25 degC
*   Inductor Saturation Model
*   Use model for Time Domain simulations
*======================================================================
.subckt XAL6030-181_sat port1 port2 PARAMS: Cpar=7.558pF Ind=0.18uH
X1 port1 port2 Model1C PARAMS:
+ R1=7.5
+ R2=0.00159
+ C= {Cpar}
+ K1=0.000075
+ K2=0.021
+ K3= {Ind}
+ K4=0.001
+ K5=0.000002
+ L=1.822E-07
+ Is=118.8482
+ a=0.5611
+ L_Z0=0
+ L_EL=0
+ L_F0=0E6
+ PkZ=224.706565
.ends XAL6030-181_sat

*======================================================================
* SPICE Model generated by Coilcraft
* Coilcraft Part Number : XAL6030-331
* Inductance = 330nH
*======================================================================
* Model Parameters:
*   Valid Frequency Range = 0.1MHz-200MHz
*   Ambient Temperature = 25 degC
*   Inductor Frequency Model
*   Use model for Frequency Domain simulations
*======================================================================
.subckt XAL6030-331_freq port1 port2 PARAMS: Cpar=10.6pF Ind=0.33uH
X1 port1 port2 Model1A PARAMS:
+ R1=9
+ R2=0.0023
+ C= {Cpar}
+ K1=0.000025
+ K2=0.044
+ K3= {Ind}
+ K4=0.001
+ K5=0.000007
+ L=3.368E-07
+ Is=72.4842
+ a=0.6815
+ L_Z0=0
+ L_EL=0
+ L_F0=0E6
+ PkZ=363.194359
.ends XAL6030-331_freq

*======================================================================
* SPICE Model generated by Coilcraft
* Coilcraft Part Number : XAL6030-331
* Inductance = 330nH
*======================================================================
* Model Parameters:
*   Valid Frequency Range = 0.1MHz-200MHz
*   Ambient Temperature = 25 degC
*   Inductor Saturation Model
*   Use model for Time Domain simulations
*======================================================================
.subckt XAL6030-331_sat port1 port2 PARAMS: Cpar=10.395pF Ind=0.33uH
X1 port1 port2 Model1C PARAMS:
+ R1=9
+ R2=0.0023
+ C= {Cpar}
+ K1=0.000025
+ K2=0.044
+ K3= {Ind}
+ K4=0.001
+ K5=0.000007
+ L=3.368E-07
+ Is=72.4842
+ a=0.6815
+ L_Z0=0
+ L_EL=0
+ L_F0=0E6
+ PkZ=363.194359
.ends XAL6030-331_sat

*======================================================================
* SPICE Model generated by Coilcraft
* Coilcraft Part Number : XAL6030-561
* Inductance = 560nH
*======================================================================
* Model Parameters:
*   Valid Frequency Range = 0.1MHz-200MHz
*   Ambient Temperature = 25 degC
*   Inductor Frequency Model
*   Use model for Frequency Domain simulations
*======================================================================
.subckt XAL6030-561_freq port1 port2 PARAMS: Cpar=10.9pF Ind=0.56uH
X1 port1 port2 Model1A PARAMS:
+ R1=7.4
+ R2=0.00301
+ C= {Cpar}
+ K1=0.000001
+ K2=0.143
+ K3= {Ind}
+ K4=0.0032
+ K5=0.001
+ L=5.481E-07
+ Is=62.9092
+ a=0.5932
+ L_Z0=0
+ L_EL=0
+ L_F0=0E6
+ PkZ=989.185588
.ends XAL6030-561_freq

*======================================================================
* SPICE Model generated by Coilcraft
* Coilcraft Part Number : XAL6030-561
* Inductance = 560nH
*======================================================================
* Model Parameters:
*   Valid Frequency Range = 0.1MHz-200MHz
*   Ambient Temperature = 25 degC
*   Inductor Saturation Model
*   Use model for Time Domain simulations
*======================================================================
.subckt XAL6030-561_sat port1 port2 PARAMS: Cpar=10.21pF Ind=0.56uH
X1 port1 port2 Model1C PARAMS:
+ R1=7.4
+ R2=0.00301
+ C= {Cpar}
+ K1=0.000001
+ K2=0.143
+ K3= {Ind}
+ K4=0.0032
+ K5=0.001
+ L=5.481E-07
+ Is=62.9092
+ a=0.5932
+ L_Z0=0
+ L_EL=0
+ L_F0=0E6
+ PkZ=989.185588
.ends XAL6030-561_sat

*======================================================================
* SPICE Model generated by Coilcraft
* Coilcraft Part Number : XAL6030-102
* Inductance = 1uH
*======================================================================
* Model Parameters:
*   Valid Frequency Range = 0.1MHz-200MHz
*   Ambient Temperature = 25 degC
*   Inductor Frequency Model
*   Use model for Frequency Domain simulations
*======================================================================
.subckt XAL6030-102_freq port1 port2 PARAMS: Cpar=3.6pF Ind=1uH
X1 port1 port2 Model1A PARAMS:
+ R1=10
+ R2=0.00562
+ C= {Cpar}
+ K1=0.000075
+ K2=0.24
+ K3= {Ind}
+ K4=0.004
+ K5=0.000009
+ L=1.0035E-06
+ Is=43.2064
+ a=0.6242
+ L_Z0=0
+ L_EL=0
+ L_F0=0E6
+ PkZ=2034.92549
.ends XAL6030-102_freq

*======================================================================
* SPICE Model generated by Coilcraft
* Coilcraft Part Number : XAL6030-102
* Inductance = 1uH
*======================================================================
* Model Parameters:
*   Valid Frequency Range = 0.1MHz-200MHz
*   Ambient Temperature = 25 degC
*   Inductor Saturation Model
*   Use model for Time Domain simulations
*======================================================================
.subckt XAL6030-102_sat port1 port2 PARAMS: Cpar=3.505pF Ind=1uH
X1 port1 port2 Model1C PARAMS:
+ R1=10
+ R2=0.00562
+ C= {Cpar}
+ K1=0.000075
+ K2=0.24
+ K3= {Ind}
+ K4=0.004
+ K5=0.000009
+ L=1.0035E-06
+ Is=43.2064
+ a=0.6242
+ L_Z0=0
+ L_EL=0
+ L_F0=0E6
+ PkZ=2034.92549
.ends XAL6030-102_sat

*======================================================================
* SPICE Model generated by Coilcraft
* Coilcraft Part Number : XAL6030-122
* Inductance = 1.2uH
*======================================================================
* Model Parameters:
*   Valid Frequency Range = 0.1MHz-200MHz
*   Ambient Temperature = 25 degC
*   Inductor Frequency Model
*   Use model for Frequency Domain simulations
*======================================================================
.subckt XAL6030-122_freq port1 port2 PARAMS: Cpar=11.6pF Ind=1.2uH
X1 port1 port2 Model1A PARAMS:
+ R1=8.5
+ R2=0.00682
+ C= {Cpar}
+ K1=0.000075
+ K2=0.19
+ K3= {Ind}
+ K4=0.005
+ K5=0.000008
+ L=1.2461E-06
+ Is=48.4747
+ a=0.5648
+ L_Z0=0
+ L_EL=0
+ L_F0=0E6
+ PkZ=1123.68609
.ends XAL6030-122_freq

*======================================================================
* SPICE Model generated by Coilcraft
* Coilcraft Part Number : XAL6030-122
* Inductance = 1.2uH
*======================================================================
* Model Parameters:
*   Valid Frequency Range = 0.1MHz-200MHz
*   Ambient Temperature = 25 degC
*   Inductor Saturation Model
*   Use model for Time Domain simulations
*======================================================================
.subckt XAL6030-122_sat port1 port2 PARAMS: Cpar=11.318pF Ind=1.2uH
X1 port1 port2 Model1C PARAMS:
+ R1=8.5
+ R2=0.00682
+ C= {Cpar}
+ K1=0.000075
+ K2=0.19
+ K3= {Ind}
+ K4=0.005
+ K5=0.000008
+ L=1.2461E-06
+ Is=48.4747
+ a=0.5648
+ L_Z0=0
+ L_EL=0
+ L_F0=0E6
+ PkZ=1123.68609
.ends XAL6030-122_sat

*======================================================================
* SPICE Model generated by Coilcraft
* Coilcraft Part Number : XAL6030-182
* Inductance = 1.8uH
*======================================================================
* Model Parameters:
*   Valid Frequency Range = 0.1MHz-100MHz
*   Ambient Temperature = 25 degC
*   Inductor Frequency Model
*   Use model for Frequency Domain simulations
*======================================================================
.subckt XAL6030-182_freq port1 port2 PARAMS: Cpar=13.2pF Ind=1.8uH
X1 port1 port2 Model1A PARAMS:
+ R1=7.5
+ R2=0.00957
+ C= {Cpar}
+ K1=0.00005
+ K2=0.26
+ K3= {Ind}
+ K4=0.003
+ K5=0.000008
+ L=1.8304E-06
+ Is=35.4549
+ a=0.6445
+ L_Z0=0
+ L_EL=0
+ L_F0=0E6
+ PkZ=1371.48071
.ends XAL6030-182_freq

*======================================================================
* SPICE Model generated by Coilcraft
* Coilcraft Part Number : XAL6030-182
* Inductance = 1.8uH
*======================================================================
* Model Parameters:
*   Valid Frequency Range = 0.1MHz-100MHz
*   Ambient Temperature = 25 degC
*   Inductor Saturation Model
*   Use model for Time Domain simulations
*======================================================================
.subckt XAL6030-182_sat port1 port2 PARAMS: Cpar=13.078pF Ind=1.8uH
X1 port1 port2 Model1C PARAMS:
+ R1=7.5
+ R2=0.00957
+ C= {Cpar}
+ K1=0.00005
+ K2=0.26
+ K3= {Ind}
+ K4=0.003
+ K5=0.000008
+ L=1.8304E-06
+ Is=35.4549
+ a=0.6445
+ L_Z0=0
+ L_EL=0
+ L_F0=0E6
+ PkZ=1371.48071
.ends XAL6030-182_sat

*======================================================================
* SPICE Model generated by Coilcraft
* Coilcraft Part Number : XAL6030-222
* Inductance = 2.2uH
*======================================================================
* Model Parameters:
*   Valid Frequency Range = 0.1MHz-200MHz
*   Ambient Temperature = 25 degC
*   Inductor Frequency Model
*   Use model for Frequency Domain simulations
*======================================================================
.subckt XAL6030-222_freq port1 port2 PARAMS: Cpar=11.5pF Ind=2.2uH
X1 port1 port2 Model1A PARAMS:
+ R1=8.5
+ R2=0.0127
+ C= {Cpar}
+ K1=0.000003
+ K2=0.37
+ K3= {Ind}
+ K4=0.008
+ K5=0.00001
+ L=2.1725E-06
+ Is=36.0065
+ a=0.607
+ L_Z0=0
+ L_EL=0
+ L_F0=0E6
+ PkZ=1910.62094
.ends XAL6030-222_freq

*======================================================================
* SPICE Model generated by Coilcraft
* Coilcraft Part Number : XAL6030-222
* Inductance = 2.2uH
*======================================================================
* Model Parameters:
*   Valid Frequency Range = 0.1MHz-200MHz
*   Ambient Temperature = 25 degC
*   Inductor Saturation Model
*   Use model for Time Domain simulations
*======================================================================
.subckt XAL6030-222_sat port1 port2 PARAMS: Cpar=11.259pF Ind=2.2uH
X1 port1 port2 Model1C PARAMS:
+ R1=8.5
+ R2=0.0127
+ C= {Cpar}
+ K1=0.000003
+ K2=0.37
+ K3= {Ind}
+ K4=0.008
+ K5=0.00001
+ L=2.1725E-06
+ Is=36.0065
+ a=0.607
+ L_Z0=0
+ L_EL=0
+ L_F0=0E6
+ PkZ=1910.62094
.ends XAL6030-222_sat

*======================================================================
* SPICE Model generated by Coilcraft
* Coilcraft Part Number : XAL6030-332
* Inductance = 3.3uH
*======================================================================
* Model Parameters:
*   Valid Frequency Range = 0.1MHz-200MHz
*   Ambient Temperature = 25 degC
*   Inductor Frequency Model
*   Use model for Frequency Domain simulations
*======================================================================
.subckt XAL6030-332_freq port1 port2 PARAMS: Cpar=4.6pF Ind=3.3uH
X1 port1 port2 Model1A PARAMS:
+ R1=8
+ R2=0.01992
+ C= {Cpar}
+ K1=0.000125
+ K2=0.78
+ K3= {Ind}
+ K4=0.008
+ K5=0.000009
+ L=3.4899E-06
+ Is=29.0261
+ a=0.5607
+ L_Z0=0
+ L_EL=0
+ L_F0=0E6
+ PkZ=4709.97368
.ends XAL6030-332_freq

*======================================================================
* SPICE Model generated by Coilcraft
* Coilcraft Part Number : XAL6030-332
* Inductance = 3.3uH
*======================================================================
* Model Parameters:
*   Valid Frequency Range = 0.1MHz-200MHz
*   Ambient Temperature = 25 degC
*   Inductor Saturation Model
*   Use model for Time Domain simulations
*======================================================================
.subckt XAL6030-332_sat port1 port2 PARAMS: Cpar=4.534pF Ind=3.3uH
X1 port1 port2 Model1C PARAMS:
+ R1=8
+ R2=0.01992
+ C= {Cpar}
+ K1=0.000125
+ K2=0.78
+ K3= {Ind}
+ K4=0.008
+ K5=0.000009
+ L=3.4899E-06
+ Is=29.0261
+ a=0.5607
+ L_Z0=0
+ L_EL=0
+ L_F0=0E6
+ PkZ=4709.97368
.ends XAL6030-332_sat

*======================================================================
* SPICE Model generated by Coilcraft
* Coilcraft Part Number : XAL6060-472
* Inductance = 4.7uH
*======================================================================
* Model Parameters:
*   Valid Frequency Range = 0.1MHz-100MHz
*   Ambient Temperature = 25 degC
*   Inductor Frequency Model
*   Use model for Frequency Domain simulations
*======================================================================
.subckt XAL6060-472_freq port1 port2 PARAMS: Cpar=3pF Ind=4.7uH
X1 port1 port2 Model1A PARAMS:
+ R1=6
+ R2=0.0179
+ C= {Cpar}
+ K1=0.0004
+ K2=1.5
+ K3= {Ind}
+ K4=0.006
+ K5=0.000006
+ L=4.746E-06
+ Is=17.8489
+ a=0.7582
+ L_Z0=0
+ L_EL=0
+ L_F0=0E6
+ PkZ=9280.47228
.ends XAL6060-472_freq

*======================================================================
* SPICE Model generated by Coilcraft
* Coilcraft Part Number : XAL6060-472
* Inductance = 4.7uH
*======================================================================
* Model Parameters:
*   Valid Frequency Range = 0.1MHz-100MHz
*   Ambient Temperature = 25 degC
*   Inductor Saturation Model
*   Use model for Time Domain simulations
*======================================================================
.subckt XAL6060-472_sat port1 port2 PARAMS: Cpar=2.979pF Ind=4.7uH
X1 port1 port2 Model1C PARAMS:
+ R1=6
+ R2=0.0179
+ C= {Cpar}
+ K1=0.0004
+ K2=1.5
+ K3= {Ind}
+ K4=0.006
+ K5=0.000006
+ L=4.746E-06
+ Is=17.8489
+ a=0.7582
+ L_Z0=0
+ L_EL=0
+ L_F0=0E6
+ PkZ=9280.47228
.ends XAL6060-472_sat

*======================================================================
* SPICE Model generated by Coilcraft
* Coilcraft Part Number : XAL6060-562
* Inductance = 5.6uH
*======================================================================
* Model Parameters:
*   Valid Frequency Range = 0.1MHz-100MHz
*   Ambient Temperature = 25 degC
*   Inductor Frequency Model
*   Use model for Frequency Domain simulations
*======================================================================
.subckt XAL6060-562_freq port1 port2 PARAMS: Cpar=4.6pF Ind=5.6uH
X1 port1 port2 Model1A PARAMS:
+ R1=5
+ R2=0.01622
+ C= {Cpar}
+ K1=0.0003
+ K2=1.5
+ K3= {Ind}
+ K4=0.007
+ K5=0.000007
+ L=5.5699E-06
+ Is=16.4153
+ a=0.7791
+ L_Z0=0
+ L_EL=0
+ L_F0=0E6
+ PkZ=8040.08225
.ends XAL6060-562_freq

*======================================================================
* SPICE Model generated by Coilcraft
* Coilcraft Part Number : XAL6060-562
* Inductance = 5.6uH
*======================================================================
* Model Parameters:
*   Valid Frequency Range = 0.1MHz-100MHz
*   Ambient Temperature = 25 degC
*   Inductor Saturation Model
*   Use model for Time Domain simulations
*======================================================================
.subckt XAL6060-562_sat port1 port2 PARAMS: Cpar=4.569pF Ind=5.6uH
X1 port1 port2 Model1C PARAMS:
+ R1=5
+ R2=0.01622
+ C= {Cpar}
+ K1=0.0003
+ K2=1.5
+ K3= {Ind}
+ K4=0.007
+ K5=0.000007
+ L=5.5699E-06
+ Is=16.4153
+ a=0.7791
+ L_Z0=0
+ L_EL=0
+ L_F0=0E6
+ PkZ=8040.08225
.ends XAL6060-562_sat

*======================================================================
* SPICE Model generated by Coilcraft
* Coilcraft Part Number : XAL6060-682
* Inductance = 6.8uH
*======================================================================
* Model Parameters:
*   Valid Frequency Range = 0.1MHz-90MHz
*   Ambient Temperature = 25 degC
*   Inductor Frequency Model
*   Use model for Frequency Domain simulations
*======================================================================
.subckt XAL6060-682_freq port1 port2 PARAMS: Cpar=7.6pF Ind=6.8uH
X1 port1 port2 Model1A PARAMS:
+ R1=5
+ R2=0.0189
+ C= {Cpar}
+ K1=0.0008
+ K2=1.9
+ K3= {Ind}
+ K4=0.004
+ K5=0.0000025
+ L=7.3044E-06
+ Is=15.9508
+ a=0.7504
+ L_Z0=0
+ L_EL=0
+ L_F0=0E6
+ PkZ=8222.85093
.ends XAL6060-682_freq

*======================================================================
* SPICE Model generated by Coilcraft
* Coilcraft Part Number : XAL6060-682
* Inductance = 6.8uH
*======================================================================
* Model Parameters:
*   Valid Frequency Range = 0.1MHz-90MHz
*   Ambient Temperature = 25 degC
*   Inductor Saturation Model
*   Use model for Time Domain simulations
*======================================================================
.subckt XAL6060-682_sat port1 port2 PARAMS: Cpar=7.582pF Ind=6.8uH
X1 port1 port2 Model1C PARAMS:
+ R1=5
+ R2=0.0189
+ C= {Cpar}
+ K1=0.0008
+ K2=1.9
+ K3= {Ind}
+ K4=0.004
+ K5=0.0000025
+ L=7.3044E-06
+ Is=15.9508
+ a=0.7504
+ L_Z0=0
+ L_EL=0
+ L_F0=0E6
+ PkZ=8222.85093
.ends XAL6060-682_sat

*======================================================================
* SPICE Model generated by Coilcraft
* Coilcraft Part Number : XAL6060-822
* Inductance = 8.2uH
*======================================================================
* Model Parameters:
*   Valid Frequency Range = 0.1MHz-80MHz
*   Ambient Temperature = 25 degC
*   Inductor Frequency Model
*   Use model for Frequency Domain simulations
*======================================================================
.subckt XAL6060-822_freq port1 port2 PARAMS: Cpar=14.6pF Ind=8.2uH
X1 port1 port2 Model1A PARAMS:
+ R1=10
+ R2=0.024
+ C= {Cpar}
+ K1=0.00005
+ K2=1.1
+ K3= {Ind}
+ K4=0.006
+ K5=0.000007
+ L=8.8409E-06
+ Is=13.1836
+ a=0.7799
+ L_Z0=0
+ L_EL=0
+ L_F0=0E6
+ PkZ=3900.72145
.ends XAL6060-822_freq

*======================================================================
* SPICE Model generated by Coilcraft
* Coilcraft Part Number : XAL6060-822
* Inductance = 8.2uH
*======================================================================
* Model Parameters:
*   Valid Frequency Range = 0.1MHz-80MHz
*   Ambient Temperature = 25 degC
*   Inductor Saturation Model
*   Use model for Time Domain simulations
*======================================================================
.subckt XAL6060-822_sat port1 port2 PARAMS: Cpar=14.551pF Ind=8.2uH
X1 port1 port2 Model1C PARAMS:
+ R1=10
+ R2=0.024
+ C= {Cpar}
+ K1=0.00005
+ K2=1.1
+ K3= {Ind}
+ K4=0.006
+ K5=0.000007
+ L=8.8409E-06
+ Is=13.1836
+ a=0.7799
+ L_Z0=0
+ L_EL=0
+ L_F0=0E6
+ PkZ=3900.72145
.ends XAL6060-822_sat

*======================================================================
* SPICE Model generated by Coilcraft
* Coilcraft Part Number : XAL6060-103
* Inductance = 10uH
*======================================================================
* Model Parameters:
*   Valid Frequency Range = 0.1MHz-100MHz
*   Ambient Temperature = 25 degC
*   Inductor Frequency Model
*   Use model for Frequency Domain simulations
*======================================================================
.subckt XAL6060-103_freq port1 port2 PARAMS: Cpar=13.2pF Ind=10uH
X1 port1 port2 Model1A PARAMS:
+ R1=12
+ R2=0.027
+ C= {Cpar}
+ K1=0.000925
+ K2=1.25
+ K3= {Ind}
+ K4=0.005
+ K5=0.00000035
+ L=1.0118E-05
+ Is=12.0954
+ a=0.7795
+ L_Z0=0
+ L_EL=0
+ L_F0=0E6
+ PkZ=4249.93733
.ends XAL6060-103_freq

*======================================================================
* SPICE Model generated by Coilcraft
* Coilcraft Part Number : XAL6060-103
* Inductance = 10uH
*======================================================================
* Model Parameters:
*   Valid Frequency Range = 0.1MHz-100MHz
*   Ambient Temperature = 25 degC
*   Inductor Saturation Model
*   Use model for Time Domain simulations
*======================================================================
.subckt XAL6060-103_sat port1 port2 PARAMS: Cpar=13.19pF Ind=10uH
X1 port1 port2 Model1C PARAMS:
+ R1=12
+ R2=0.027
+ C= {Cpar}
+ K1=0.000925
+ K2=1.25
+ K3= {Ind}
+ K4=0.005
+ K5=0.00000035
+ L=1.0118E-05
+ Is=12.0954
+ a=0.7795
+ L_Z0=0
+ L_EL=0
+ L_F0=0E6
+ PkZ=4249.93733
.ends XAL6060-103_sat

*======================================================================
* SPICE Model generated by Coilcraft
* Coilcraft Part Number : XAL6060-153
* Inductance = 15uH
*======================================================================
* Model Parameters:
*   Valid Frequency Range = 0.1MHz-100MHz
*   Ambient Temperature = 25 degC
*   Inductor Frequency Model
*   Use model for Frequency Domain simulations
*======================================================================
.subckt XAL6060-153_freq port1 port2 PARAMS: Cpar=13.4pF Ind=15uH
X1 port1 port2 Model1A PARAMS:
+ R1=12
+ R2=0.03977
+ C= {Cpar}
+ K1=0.00005
+ K2=1.7
+ K3= {Ind}
+ K4=0.004
+ K5=0.0000035
+ L=1.5426E-05
+ Is=11.6948
+ a=0.6677
+ L_Z0=0
+ L_EL=0
+ L_F0=0E6
+ PkZ=5364.79301
.ends XAL6060-153_freq

*======================================================================
* SPICE Model generated by Coilcraft
* Coilcraft Part Number : XAL6060-153
* Inductance = 15uH
*======================================================================
* Model Parameters:
*   Valid Frequency Range = 0.1MHz-100MHz
*   Ambient Temperature = 25 degC
*   Inductor Saturation Model
*   Use model for Time Domain simulations
*======================================================================
.subckt XAL6060-153_sat port1 port2 PARAMS: Cpar=13.387pF Ind=15uH
X1 port1 port2 Model1C PARAMS:
+ R1=12
+ R2=0.03977
+ C= {Cpar}
+ K1=0.00005
+ K2=1.7
+ K3= {Ind}
+ K4=0.004
+ K5=0.0000035
+ L=1.5426E-05
+ Is=11.6948
+ a=0.6677
+ L_Z0=0
+ L_EL=0
+ L_F0=0E6
+ PkZ=5364.79301
.ends XAL6060-153_sat

*======================================================================
* SPICE Model generated by Coilcraft
* Coilcraft Part Number : XAL6060-223
* Inductance = 22uH
*======================================================================
* Model Parameters:
*   Valid Frequency Range = 0.1MHz-80MHz
*   Ambient Temperature = 25 degC
*   Inductor Frequency Model
*   Use model for Frequency Domain simulations
*======================================================================
.subckt XAL6060-223_freq port1 port2 PARAMS: Cpar=7.2pF Ind=22uH
X1 port1 port2 Model1A PARAMS:
+ R1=6
+ R2=0.05512
+ C= {Cpar}
+ K1=0.0009
+ K2=6.2
+ K3= {Ind}
+ K4=0.004
+ K5=0.000002
+ L=2.2214E-05
+ Is=10.129
+ a=0.7234
+ L_Z0=0
+ L_EL=0
+ L_F0=0E6
+ PkZ=20677.2164
.ends XAL6060-223_freq

*======================================================================
* SPICE Model generated by Coilcraft
* Coilcraft Part Number : XAL6060-223
* Inductance = 22uH
*======================================================================
* Model Parameters:
*   Valid Frequency Range = 0.1MHz-80MHz
*   Ambient Temperature = 25 degC
*   Inductor Saturation Model
*   Use model for Time Domain simulations
*======================================================================
.subckt XAL6060-223_sat port1 port2 PARAMS: Cpar=7.196pF Ind=22uH
X1 port1 port2 Model1C PARAMS:
+ R1=6
+ R2=0.05512
+ C= {Cpar}
+ K1=0.0009
+ K2=6.2
+ K3= {Ind}
+ K4=0.004
+ K5=0.000002
+ L=2.2214E-05
+ Is=10.129
+ a=0.7234
+ L_Z0=0
+ L_EL=0
+ L_F0=0E6
+ PkZ=20677.2164
.ends XAL6060-223_sat

*======================================================================
* SPICE Model generated by Coilcraft
* Coilcraft Part Number : XAL6060-333
* Inductance = 33uH
*======================================================================
* Model Parameters:
*   Valid Frequency Range = 0.1MHz-30MHz
*   Ambient Temperature = 25 degC
*   Inductor Frequency Model
*   Use model for Frequency Domain simulations
*======================================================================
.subckt XAL6060-333_freq port1 port2 PARAMS: Cpar=14.3pF Ind=33uH
X1 port1 port2 Model1A PARAMS:
+ R1=25
+ R2=0.09568
+ C= {Cpar}
+ K1=0.000001
+ K2=3.17
+ K3= {Ind}
+ K4=0.000001
+ K5=0.000001
+ L=3.1376E-05
+ Is=9.3047
+ a=0.6884
+ L_Z0=0
+ L_EL=0
+ L_F0=0E6
+ PkZ=7850.8332
.ends XAL6060-333_freq

*======================================================================
* SPICE Model generated by Coilcraft
* Coilcraft Part Number : XAL6060-333
* Inductance = 33uH
*======================================================================
* Model Parameters:
*   Valid Frequency Range = 0.1MHz-30MHz
*   Ambient Temperature = 25 degC
*   Inductor Saturation Model
*   Use model for Time Domain simulations
*======================================================================
.subckt XAL6060-333_sat port1 port2 PARAMS: Cpar=14.3pF Ind=33uH
X1 port1 port2 Model1C PARAMS:
+ R1=25
+ R2=0.09568
+ C= {Cpar}
+ K1=0.000001
+ K2=3.17
+ K3= {Ind}
+ K4=0.000001
+ K5=0.000001
+ L=3.1376E-05
+ Is=9.3047
+ a=0.6884
+ L_Z0=0
+ L_EL=0
+ L_F0=0E6
+ PkZ=7850.8332
.ends XAL6060-333_sat

*======================================================================
* SPICE Model generated by Coilcraft
* Coilcraft Saturation Inductor Model
*======================================================================
* Model Parameters:
*   Valid Frequency Range Varies by Inductor
*   Ambient Temperature = 25 degC
*   Current Saturable Inductor Model
*======================================================================
.subckt Model1C Lin Lout PARAMS:
+ R1=1
+ R2=1
+ C=1
+ L=1
+ Is=1
+ a=1
+ PkZ=94.2 * {L} *1e6
R2 Lin N001 {R2}
R3 N001 Lout {PkZ}
C1 N001 N002 {C}
R1 N002 Lout {R1}
L1 N001 Lout flux={L*Is}*pwrs(tanh(pwrs((x/{Is}),{a})),{1/a})
.ends Model1C





*======================================================================
* SPICE Model generated by Coilcraft
* Coilcraft Power Inductor Model
*======================================================================
* Model Parameters:
*   Valid Frequency Range Varies by Inductor
*   Ambient Temperature = 25 degC
*   DC Bias Current = 0 A
*   Frequency Dependent Inductor Model
*======================================================================
.subckt Model1A Lin Lout PARAMS:
+ R1=1
+ R2=1
+ C=1
+ K1=1
+ K2=1
+ K3=1
+ K4=1
+ K5=1
R2 N001 Lin {R2}
R1 Lout N002 {R1}
C1 N002 N001 {C}
G_Rvar2 N001 Lout LAPLACE { V(N001, Lout) } {1/K2/(-S*S/4/PI^2)^0.25}
G_Rvar1 N001 N003 LAPLACE { V(N001, N003) } {1/K1/(-S*S/4/PI^2)^0.25}
G_Lvar N003 Lout  LAPLACE { V(N003, Lout) } {1/(S*1e-6*({K3*1e6}-({K4}*LOG({K5}*(sqrt(-S*S)/(2*pi))))))}
*This large resistance to ground has been added to prevent a floating node error
R3 N003 0 100Meg
.ends Model1A


.subckt Coilcraft_Inductor Lin Lout
R1 Lout Lin 100Meg
.ends Coilcraft_Inductor
