*======================================================================
* SPICE Model generated by Coilcraft
* Coilcraft Part Number : XAL6020-121
* Inductance = 120nH
*======================================================================
* Model Parameters:
*   Valid Frequency Range = 0.1MHz-300MHz
*   Ambient Temperature = 25 degC
*   Inductor Frequency Model
*   Use model for Frequency Domain simulations
*======================================================================
.subckt XAL6020-121_freq port1 port2 PARAMS: Cpar=6.5pF Ind=0.12uH
X1 port1 port2 Model1A PARAMS:
+ R1=11.6
+ R2=0.0016
+ C= {Cpar}
+ K1=0.000001
+ K2=0.0199
+ K3= {Ind}
+ K4=0.000001
+ K5=0.000001
+ L=1.251E-07
+ Is=165.7012
+ a=0.4902
+ L_Z0=0
+ L_EL=0
+ L_F0=0E6
+ PkZ=228.930128
.ends XAL6020-121_freq

*======================================================================
* SPICE Model generated by Coilcraft
* Coilcraft Part Number : XAL6020-121
* Inductance = 120nH
*======================================================================
* Model Parameters:
*   Valid Frequency Range = 0.1MHz-300MHz
*   Ambient Temperature = 25 degC
*   Inductor Saturation Model
*   Use model for Time Domain simulations
*======================================================================
.subckt XAL6020-121_sat port1 port2 PARAMS: Cpar=6.5pF Ind=0.12uH
X1 port1 port2 Model1C PARAMS:
+ R1=11.6
+ R2=0.0016
+ C= {Cpar}
+ K1=0.000001
+ K2=0.0199
+ K3= {Ind}
+ K4=0.000001
+ K5=0.000001
+ L=1.251E-07
+ Is=165.7012
+ a=0.4902
+ L_Z0=0
+ L_EL=0
+ L_F0=0E6
+ PkZ=228.930128
.ends XAL6020-121_sat

*======================================================================
* SPICE Model generated by Coilcraft
* Coilcraft Part Number : XAL6020-161
* Inductance = 160nH
*======================================================================
* Model Parameters:
*   Valid Frequency Range = 0.1MHz-300MHz
*   Ambient Temperature = 25 degC
*   Inductor Frequency Model
*   Use model for Frequency Domain simulations
*======================================================================
.subckt XAL6020-161_freq port1 port2 PARAMS: Cpar=8.3pF Ind=0.16uH
X1 port1 port2 Model1A PARAMS:
+ R1=12.9
+ R2=0.00235
+ C= {Cpar}
+ K1=0.000001
+ K2=0.0217
+ K3= {Ind}
+ K4=0.000001
+ K5=0.000001
+ L=1.619E-07
+ Is=102.7036
+ a=0.6091
+ L_Z0=0
+ L_EL=0
+ L_F0=0E6
+ PkZ=218.068184
.ends XAL6020-161_freq

*======================================================================
* SPICE Model generated by Coilcraft
* Coilcraft Part Number : XAL6020-161
* Inductance = 160nH
*======================================================================
* Model Parameters:
*   Valid Frequency Range = 0.1MHz-300MHz
*   Ambient Temperature = 25 degC
*   Inductor Saturation Model
*   Use model for Time Domain simulations
*======================================================================
.subckt XAL6020-161_sat port1 port2 PARAMS: Cpar=8.3pF Ind=0.16uH
X1 port1 port2 Model1C PARAMS:
+ R1=12.9
+ R2=0.00235
+ C= {Cpar}
+ K1=0.000001
+ K2=0.0217
+ K3= {Ind}
+ K4=0.000001
+ K5=0.000001
+ L=1.619E-07
+ Is=102.7036
+ a=0.6091
+ L_Z0=0
+ L_EL=0
+ L_F0=0E6
+ PkZ=218.068184
.ends XAL6020-161_sat

*======================================================================
* SPICE Model generated by Coilcraft
* Coilcraft Part Number : XAL6020-271
* Inductance = 270nH
*======================================================================
* Model Parameters:
*   Valid Frequency Range = 0.1MHz-200MHz
*   Ambient Temperature = 25 degC
*   Inductor Frequency Model
*   Use model for Frequency Domain simulations
*======================================================================
.subckt XAL6020-271_freq port1 port2 PARAMS: Cpar=9.5pF Ind=0.27uH
X1 port1 port2 Model1A PARAMS:
+ R1=9.5
+ R2=0.00345
+ C= {Cpar}
+ K1=0.000001
+ K2=0.0433
+ K3= {Ind}
+ K4=0.000001
+ K5=0.000001
+ L=3.01E-07
+ Is=88.7616
+ a=0.5642
+ L_Z0=0
+ L_EL=0
+ L_F0=0E6
+ PkZ=377.314096
.ends XAL6020-271_freq

*======================================================================
* SPICE Model generated by Coilcraft
* Coilcraft Part Number : XAL6020-271
* Inductance = 270nH
*======================================================================
* Model Parameters:
*   Valid Frequency Range = 0.1MHz-200MHz
*   Ambient Temperature = 25 degC
*   Inductor Saturation Model
*   Use model for Time Domain simulations
*======================================================================
.subckt XAL6020-271_sat port1 port2 PARAMS: Cpar=9.5pF Ind=0.27uH
X1 port1 port2 Model1C PARAMS:
+ R1=9.5
+ R2=0.00345
+ C= {Cpar}
+ K1=0.000001
+ K2=0.0433
+ K3= {Ind}
+ K4=0.000001
+ K5=0.000001
+ L=3.01E-07
+ Is=88.7616
+ a=0.5642
+ L_Z0=0
+ L_EL=0
+ L_F0=0E6
+ PkZ=377.314096
.ends XAL6020-271_sat

*======================================================================
* SPICE Model generated by Coilcraft
* Coilcraft Part Number : XAL6020-451
* Inductance = 450nH
*======================================================================
* Model Parameters:
*   Valid Frequency Range = 0.1MHz-200MHz
*   Ambient Temperature = 25 degC
*   Inductor Frequency Model
*   Use model for Frequency Domain simulations
*======================================================================
.subckt XAL6020-451_freq port1 port2 PARAMS: Cpar=8.9pF Ind=0.45uH
X1 port1 port2 Model1A PARAMS:
+ R1=9
+ R2=0.0046
+ C= {Cpar}
+ K1=0.000001
+ K2=0.0709
+ K3= {Ind}
+ K4=0.000001
+ K5=0.000001
+ L=3.958E-07
+ Is=87.0509
+ a=0.5043
+ L_Z0=0
+ L_EL=0
+ L_F0=0E6
+ PkZ=568.349346
.ends XAL6020-451_freq

*======================================================================
* SPICE Model generated by Coilcraft
* Coilcraft Part Number : XAL6020-451
* Inductance = 450nH
*======================================================================
* Model Parameters:
*   Valid Frequency Range = 0.1MHz-200MHz
*   Ambient Temperature = 25 degC
*   Inductor Saturation Model
*   Use model for Time Domain simulations
*======================================================================
.subckt XAL6020-451_sat port1 port2 PARAMS: Cpar=8.9pF Ind=0.45uH
X1 port1 port2 Model1C PARAMS:
+ R1=9
+ R2=0.0046
+ C= {Cpar}
+ K1=0.000001
+ K2=0.0709
+ K3= {Ind}
+ K4=0.000001
+ K5=0.000001
+ L=3.958E-07
+ Is=87.0509
+ a=0.5043
+ L_Z0=0
+ L_EL=0
+ L_F0=0E6
+ PkZ=568.349346
.ends XAL6020-451_sat

*======================================================================
* SPICE Model generated by Coilcraft
* Coilcraft Part Number : XAL6020-601
* Inductance = 600nH
*======================================================================
* Model Parameters:
*   Valid Frequency Range = 0.1MHz-200MHz
*   Ambient Temperature = 25 degC
*   Inductor Frequency Model
*   Use model for Frequency Domain simulations
*======================================================================
.subckt XAL6020-601_freq port1 port2 PARAMS: Cpar=10.8pF Ind=0.6uH
X1 port1 port2 Model1A PARAMS:
+ R1=10.2
+ R2=0.00645
+ C= {Cpar}
+ K1=0.000001
+ K2=0.095
+ K3= {Ind}
+ K4=0.000001
+ K5=0.000001
+ L=5.772E-07
+ Is=61.8285
+ a=0.5989
+ L_Z0=0
+ L_EL=0
+ L_F0=0E6
+ PkZ=660.216144
.ends XAL6020-601_freq

*======================================================================
* SPICE Model generated by Coilcraft
* Coilcraft Part Number : XAL6020-601
* Inductance = 600nH
*======================================================================
* Model Parameters:
*   Valid Frequency Range = 0.1MHz-200MHz
*   Ambient Temperature = 25 degC
*   Inductor Saturation Model
*   Use model for Time Domain simulations
*======================================================================
.subckt XAL6020-601_sat port1 port2 PARAMS: Cpar=10.8pF Ind=0.6uH
X1 port1 port2 Model1C PARAMS:
+ R1=10.2
+ R2=0.00645
+ C= {Cpar}
+ K1=0.000001
+ K2=0.095
+ K3= {Ind}
+ K4=0.000001
+ K5=0.000001
+ L=5.772E-07
+ Is=61.8285
+ a=0.5989
+ L_Z0=0
+ L_EL=0
+ L_F0=0E6
+ PkZ=660.216144
.ends XAL6020-601_sat

*======================================================================
* SPICE Model generated by Coilcraft
* Coilcraft Part Number : XAL6020-901
* Inductance = 900nH
*======================================================================
* Model Parameters:
*   Valid Frequency Range = 0.1MHz-200MHz
*   Ambient Temperature = 25 degC
*   Inductor Frequency Model
*   Use model for Frequency Domain simulations
*======================================================================
.subckt XAL6020-901_freq port1 port2 PARAMS: Cpar=9.6pF Ind=0.9uH
X1 port1 port2 Model1A PARAMS:
+ R1=10.9
+ R2=0.01063
+ C= {Cpar}
+ K1=0.000001
+ K2=0.148
+ K3= {Ind}
+ K4=0.000001
+ K5=0.000001
+ L=7.843E-07
+ Is=55.9422
+ a=0.5987
+ L_Z0=0
+ L_EL=0
+ L_F0=0E6
+ PkZ=966.710994
.ends XAL6020-901_freq

*======================================================================
* SPICE Model generated by Coilcraft
* Coilcraft Part Number : XAL6020-901
* Inductance = 900nH
*======================================================================
* Model Parameters:
*   Valid Frequency Range = 0.1MHz-200MHz
*   Ambient Temperature = 25 degC
*   Inductor Saturation Model
*   Use model for Time Domain simulations
*======================================================================
.subckt XAL6020-901_sat port1 port2 PARAMS: Cpar=9.6pF Ind=0.9uH
X1 port1 port2 Model1C PARAMS:
+ R1=10.9
+ R2=0.01063
+ C= {Cpar}
+ K1=0.000001
+ K2=0.148
+ K3= {Ind}
+ K4=0.000001
+ K5=0.000001
+ L=7.843E-07
+ Is=55.9422
+ a=0.5987
+ L_Z0=0
+ L_EL=0
+ L_F0=0E6
+ PkZ=966.710994
.ends XAL6020-901_sat

*======================================================================
* SPICE Model generated by Coilcraft
* Coilcraft Part Number : XAL6020-112
* Inductance = 1.1uH
*======================================================================
* Model Parameters:
*   Valid Frequency Range = 0.1MHz-200MHz
*   Ambient Temperature = 25 degC
*   Inductor Frequency Model
*   Use model for Frequency Domain simulations
*======================================================================
.subckt XAL6020-112_freq port1 port2 PARAMS: Cpar=11.4pF Ind=1.1uH
X1 port1 port2 Model1A PARAMS:
+ R1=8.7
+ R2=0.0126
+ C= {Cpar}
+ K1=0.000001
+ K2=0.218
+ K3= {Ind}
+ K4=0.000001
+ K5=0.000001
+ L=1.0828E-06
+ Is=49.489
+ a=0.5926
+ L_Z0=0
+ L_EL=0
+ L_F0=0E6
+ PkZ=1291.32612
.ends XAL6020-112_freq

*======================================================================
* SPICE Model generated by Coilcraft
* Coilcraft Part Number : XAL6020-112
* Inductance = 1.1uH
*======================================================================
* Model Parameters:
*   Valid Frequency Range = 0.1MHz-200MHz
*   Ambient Temperature = 25 degC
*   Inductor Saturation Model
*   Use model for Time Domain simulations
*======================================================================
.subckt XAL6020-112_sat port1 port2 PARAMS: Cpar=11.4pF Ind=1.1uH
X1 port1 port2 Model1C PARAMS:
+ R1=8.7
+ R2=0.0126
+ C= {Cpar}
+ K1=0.000001
+ K2=0.218
+ K3= {Ind}
+ K4=0.000001
+ K5=0.000001
+ L=1.0828E-06
+ Is=49.489
+ a=0.5926
+ L_Z0=0
+ L_EL=0
+ L_F0=0E6
+ PkZ=1291.32612
.ends XAL6020-112_sat

*======================================================================
* SPICE Model generated by Coilcraft
* Coilcraft Saturation Inductor Model
*======================================================================
* Model Parameters:
*   Valid Frequency Range Varies by Inductor
*   Ambient Temperature = 25 degC
*   Current Saturable Inductor Model
*======================================================================
.subckt Model1C Lin Lout PARAMS:
+ R1=1
+ R2=1
+ C=1
+ L=1
+ Is=1
+ a=1
+ PkZ=94.2 * {L} *1e6
R2 Lin N001 {R2}
R3 N001 Lout {PkZ}
C1 N001 N002 {C}
R1 N002 Lout {R1}
L1 N001 Lout flux={L*Is}*pwrs(tanh(pwrs((x/{Is}),{a})),{1/a})
.ends Model1C





*======================================================================
* SPICE Model generated by Coilcraft
* Coilcraft Power Inductor Model
*======================================================================
* Model Parameters:
*   Valid Frequency Range Varies by Inductor
*   Ambient Temperature = 25 degC
*   DC Bias Current = 0 A
*   Frequency Dependent Inductor Model
*======================================================================
.subckt Model1A Lin Lout PARAMS:
+ R1=1
+ R2=1
+ C=1
+ K1=1
+ K2=1
+ K3=1
+ K4=1
+ K5=1
R2 N001 Lin {R2}
R1 Lout N002 {R1}
C1 N002 N001 {C}
G_Rvar2 N001 Lout LAPLACE { V(N001, Lout) } {1/K2/(-S*S/4/PI^2)^0.25}
G_Rvar1 N001 N003 LAPLACE { V(N001, N003) } {1/K1/(-S*S/4/PI^2)^0.25}
G_Lvar N003 Lout  LAPLACE { V(N003, Lout) } {1/(S*1e-6*({K3*1e6}-({K4}*LOG({K5}*(sqrt(-S*S)/(2*pi))))))}
*This large resistance to ground has been added to prevent a floating node error
R3 N003 0 100Meg
.ends Model1A


.subckt Coilcraft_Inductor Lin Lout
R1 Lout Lin 100Meg
.ends Coilcraft_Inductor
