*======================================================================
* SPICE Model generated by Coilcraft
* Coilcraft Part Number : XAL7070-161
* Inductance = 160nH
*======================================================================
* Model Parameters:
*   Valid Frequency Range = 0.1MHz-220MHz
*   Ambient Temperature = 25 degC
*   Inductor Frequency Model
*   Use model for Frequency Domain simulations
*======================================================================
.subckt XAL7070-161_freq port1 port2 PARAMS: Cpar=5.31pF Ind=0.16uH
X1 port1 port2 Model1A PARAMS:
+ R1=19.1
+ R2=0.00075
+ C= {Cpar}
+ K1=0.000001
+ K2=0.0188
+ K3= {Ind}
+ K4=0.0199
+ K5=0.000001
+ L=1.648E-07
+ Is=192.7642
+ a=0.6338
+ L_Z0=0
+ L_EL=0
+ L_F0=0E6
+ PkZ=185.275518
.ends XAL7070-161_freq

*======================================================================
* SPICE Model generated by Coilcraft
* Coilcraft Part Number : XAL7070-161
* Inductance = 160nH
*======================================================================
* Model Parameters:
*   Valid Frequency Range = 0.1MHz-220MHz
*   Ambient Temperature = 25 degC
*   Inductor Saturation Model
*   Use model for Time Domain simulations
*======================================================================
.subckt XAL7070-161_sat port1 port2 PARAMS: Cpar=1.908pF Ind=0.16uH
X1 port1 port2 Model1C PARAMS:
+ R1=19.1
+ R2=0.00075
+ C= {Cpar}
+ K1=0.000001
+ K2=0.0188
+ K3= {Ind}
+ K4=0.0199
+ K5=0.000001
+ L=1.648E-07
+ Is=192.7642
+ a=0.6338
+ L_Z0=0
+ L_EL=0
+ L_F0=0E6
+ PkZ=185.275518
.ends XAL7070-161_sat

*======================================================================
* SPICE Model generated by Coilcraft
* Coilcraft Part Number : XAL7070-301
* Inductance = 300nH
*======================================================================
* Model Parameters:
*   Valid Frequency Range = 0.1MHz-160MHz
*   Ambient Temperature = 25 degC
*   Inductor Frequency Model
*   Use model for Frequency Domain simulations
*======================================================================
.subckt XAL7070-301_freq port1 port2 PARAMS: Cpar=6.27pF Ind=0.3uH
X1 port1 port2 Model1A PARAMS:
+ R1=20.2
+ R2=0.00106
+ C= {Cpar}
+ K1=0.000001
+ K2=0.0367
+ K3= {Ind}
+ K4=0.000331
+ K5=0.000001
+ L=3.465E-07
+ Is=117.3212
+ a=0.7183
+ L_Z0=0
+ L_EL=0
+ L_F0=0E6
+ PkZ=339.285412
.ends XAL7070-301_freq

*======================================================================
* SPICE Model generated by Coilcraft
* Coilcraft Part Number : XAL7070-301
* Inductance = 300nH
*======================================================================
* Model Parameters:
*   Valid Frequency Range = 0.1MHz-160MHz
*   Ambient Temperature = 25 degC
*   Inductor Saturation Model
*   Use model for Time Domain simulations
*======================================================================
.subckt XAL7070-301_sat port1 port2 PARAMS: Cpar=6.237pF Ind=0.3uH
X1 port1 port2 Model1C PARAMS:
+ R1=20.2
+ R2=0.00106
+ C= {Cpar}
+ K1=0.000001
+ K2=0.0367
+ K3= {Ind}
+ K4=0.000331
+ K5=0.000001
+ L=3.465E-07
+ Is=117.3212
+ a=0.7183
+ L_Z0=0
+ L_EL=0
+ L_F0=0E6
+ PkZ=339.285412
.ends XAL7070-301_sat

*======================================================================
* SPICE Model generated by Coilcraft
* Coilcraft Part Number : XAL7070-551
* Inductance = 550nH
*======================================================================
* Model Parameters:
*   Valid Frequency Range = 0.1MHz-110MHz
*   Ambient Temperature = 25 degC
*   Inductor Frequency Model
*   Use model for Frequency Domain simulations
*======================================================================
.subckt XAL7070-551_freq port1 port2 PARAMS: Cpar=7.62pF Ind=0.55uH
X1 port1 port2 Model1A PARAMS:
+ R1=14.5
+ R2=0.00142
+ C= {Cpar}
+ K1=0.000001
+ K2=0.0562
+ K3= {Ind}
+ K4=0.00289
+ K5=0.9
+ L=5.368E-07
+ Is=105.807
+ a=0.6141
+ L_Z0=0
+ L_EL=0
+ L_F0=0E6
+ PkZ=456.666046
.ends XAL7070-551_freq

*======================================================================
* SPICE Model generated by Coilcraft
* Coilcraft Part Number : XAL7070-551
* Inductance = 550nH
*======================================================================
* Model Parameters:
*   Valid Frequency Range = 0.1MHz-110MHz
*   Ambient Temperature = 25 degC
*   Inductor Saturation Model
*   Use model for Time Domain simulations
*======================================================================
.subckt XAL7070-551_sat port1 port2 PARAMS: Cpar=6.897pF Ind=0.55uH
X1 port1 port2 Model1C PARAMS:
+ R1=14.5
+ R2=0.00142
+ C= {Cpar}
+ K1=0.000001
+ K2=0.0562
+ K3= {Ind}
+ K4=0.00289
+ K5=0.9
+ L=5.368E-07
+ Is=105.807
+ a=0.6141
+ L_Z0=0
+ L_EL=0
+ L_F0=0E6
+ PkZ=456.666046
.ends XAL7070-551_sat

*======================================================================
* SPICE Model generated by Coilcraft
* Coilcraft Part Number : XAL7070-651
* Inductance = 650nH
*======================================================================
* Model Parameters:
*   Valid Frequency Range = 0.1MHz-140MHz
*   Ambient Temperature = 25 degC
*   Inductor Frequency Model
*   Use model for Frequency Domain simulations
*======================================================================
.subckt XAL7070-651_freq port1 port2 PARAMS: Cpar=9.02pF Ind=0.65uH
X1 port1 port2 Model1A PARAMS:
+ R1=11.5
+ R2=0.00175
+ C= {Cpar}
+ K1=0.0000315
+ K2=0.081
+ K3= {Ind}
+ K4=0.0103
+ K5=0.000001
+ L=6.595E-07
+ Is=91.7973
+ a=0.7246
+ L_Z0=0
+ L_EL=0
+ L_F0=0E6
+ PkZ=598.320694
.ends XAL7070-651_freq

*======================================================================
* SPICE Model generated by Coilcraft
* Coilcraft Part Number : XAL7070-651
* Inductance = 650nH
*======================================================================
* Model Parameters:
*   Valid Frequency Range = 0.1MHz-140MHz
*   Ambient Temperature = 25 degC
*   Inductor Saturation Model
*   Use model for Time Domain simulations
*======================================================================
.subckt XAL7070-651_sat port1 port2 PARAMS: Cpar=8.422pF Ind=0.65uH
X1 port1 port2 Model1C PARAMS:
+ R1=11.5
+ R2=0.00175
+ C= {Cpar}
+ K1=0.0000315
+ K2=0.081
+ K3= {Ind}
+ K4=0.0103
+ K5=0.000001
+ L=6.595E-07
+ Is=91.7973
+ a=0.7246
+ L_Z0=0
+ L_EL=0
+ L_F0=0E6
+ PkZ=598.320694
.ends XAL7070-651_sat

*======================================================================
* SPICE Model generated by Coilcraft
* Coilcraft Part Number : XAL7070-801
* Inductance = 800nH
*======================================================================
* Model Parameters:
*   Valid Frequency Range = 0.1MHz-120MHz
*   Ambient Temperature = 25 degC
*   Inductor Frequency Model
*   Use model for Frequency Domain simulations
*======================================================================
.subckt XAL7070-801_freq port1 port2 PARAMS: Cpar=7.62pF Ind=0.8uH
X1 port1 port2 Model1A PARAMS:
+ R1=9
+ R2=0.00208
+ C= {Cpar}
+ K1=0.0000145
+ K2=0.087
+ K3= {Ind}
+ K4=0.0206
+ K5=0.0000325
+ L=8.445E-07
+ Is=89.2431
+ a=0.6832
+ L_Z0=0
+ L_EL=0
+ L_F0=0E6
+ PkZ=683.318526
.ends XAL7070-801_freq

*======================================================================
* SPICE Model generated by Coilcraft
* Coilcraft Part Number : XAL7070-801
* Inductance = 800nH
*======================================================================
* Model Parameters:
*   Valid Frequency Range = 0.1MHz-120MHz
*   Ambient Temperature = 25 degC
*   Inductor Saturation Model
*   Use model for Time Domain simulations
*======================================================================
.subckt XAL7070-801_sat port1 port2 PARAMS: Cpar=6.119pF Ind=0.8uH
X1 port1 port2 Model1C PARAMS:
+ R1=9
+ R2=0.00208
+ C= {Cpar}
+ K1=0.0000145
+ K2=0.087
+ K3= {Ind}
+ K4=0.0206
+ K5=0.0000325
+ L=8.445E-07
+ Is=89.2431
+ a=0.6832
+ L_Z0=0
+ L_EL=0
+ L_F0=0E6
+ PkZ=683.318526
.ends XAL7070-801_sat

*======================================================================
* SPICE Model generated by Coilcraft
* Coilcraft Part Number : XAL7070-102
* Inductance = 1uH
*======================================================================
* Model Parameters:
*   Valid Frequency Range = 0.1MHz-100MHz
*   Ambient Temperature = 25 degC
*   Inductor Frequency Model
*   Use model for Frequency Domain simulations
*======================================================================
.subckt XAL7070-102_freq port1 port2 PARAMS: Cpar=8.52pF Ind=1uH
X1 port1 port2 Model1A PARAMS:
+ R1=11.9
+ R2=0.00255
+ C= {Cpar}
+ K1=0.000001
+ K2=0.115
+ K3= {Ind}
+ K4=0.0127
+ K5=0.00005
+ L=1.0382E-06
+ Is=72.4957
+ a=0.6867
+ L_Z0=0
+ L_EL=0
+ L_F0=0E6
+ PkZ=793.969383
.ends XAL7070-102_freq

*======================================================================
* SPICE Model generated by Coilcraft
* Coilcraft Part Number : XAL7070-102
* Inductance = 1uH
*======================================================================
* Model Parameters:
*   Valid Frequency Range = 0.1MHz-100MHz
*   Ambient Temperature = 25 degC
*   Inductor Saturation Model
*   Use model for Time Domain simulations
*======================================================================
.subckt XAL7070-102_sat port1 port2 PARAMS: Cpar=7.664pF Ind=1uH
X1 port1 port2 Model1C PARAMS:
+ R1=11.9
+ R2=0.00255
+ C= {Cpar}
+ K1=0.000001
+ K2=0.115
+ K3= {Ind}
+ K4=0.0127
+ K5=0.00005
+ L=1.0382E-06
+ Is=72.4957
+ a=0.6867
+ L_Z0=0
+ L_EL=0
+ L_F0=0E6
+ PkZ=793.969383
.ends XAL7070-102_sat

*======================================================================
* SPICE Model generated by Coilcraft
* Coilcraft Part Number : XAL7070-122
* Inductance = 1.2uH
*======================================================================
* Model Parameters:
*   Valid Frequency Range = 0.1MHz-100MHz
*   Ambient Temperature = 25 degC
*   Inductor Frequency Model
*   Use model for Frequency Domain simulations
*======================================================================
.subckt XAL7070-122_freq port1 port2 PARAMS: Cpar=9.42pF Ind=1.2uH
X1 port1 port2 Model1A PARAMS:
+ R1=14.8
+ R2=0.0031
+ C= {Cpar}
+ K1=0.0000317
+ K2=0.135
+ K3= {Ind}
+ K4=0.000001
+ K5=0.000001
+ L=1.2465E-06
+ Is=56.3845
+ a=0.8059
+ L_Z0=0
+ L_EL=0
+ L_F0=0E6
+ PkZ=837.295264
.ends XAL7070-122_freq

*======================================================================
* SPICE Model generated by Coilcraft
* Coilcraft Part Number : XAL7070-122
* Inductance = 1.2uH
*======================================================================
* Model Parameters:
*   Valid Frequency Range = 0.1MHz-100MHz
*   Ambient Temperature = 25 degC
*   Inductor Saturation Model
*   Use model for Time Domain simulations
*======================================================================
.subckt XAL7070-122_sat port1 port2 PARAMS: Cpar=9.42pF Ind=1.2uH
X1 port1 port2 Model1C PARAMS:
+ R1=14.8
+ R2=0.0031
+ C= {Cpar}
+ K1=0.0000317
+ K2=0.135
+ K3= {Ind}
+ K4=0.000001
+ K5=0.000001
+ L=1.2465E-06
+ Is=56.3845
+ a=0.8059
+ L_Z0=0
+ L_EL=0
+ L_F0=0E6
+ PkZ=837.295264
.ends XAL7070-122_sat

*======================================================================
* SPICE Model generated by Coilcraft
* Coilcraft Part Number : XAL7070-182
* Inductance = 1.8uH
*======================================================================
* Model Parameters:
*   Valid Frequency Range = 0.1MHz-75MHz
*   Ambient Temperature = 25 degC
*   Inductor Frequency Model
*   Use model for Frequency Domain simulations
*======================================================================
.subckt XAL7070-182_freq port1 port2 PARAMS: Cpar=9.62pF Ind=1.8uH
X1 port1 port2 Model1A PARAMS:
+ R1=7.4
+ R2=0.00405
+ C= {Cpar}
+ K1=0.000001
+ K2=0.191
+ K3= {Ind}
+ K4=0.0079
+ K5=0.9
+ L=1.7663E-06
+ Is=47.9266
+ a=0.772
+ L_Z0=0
+ L_EL=0
+ L_F0=0E6
+ PkZ=1145.72607
.ends XAL7070-182_freq

*======================================================================
* SPICE Model generated by Coilcraft
* Coilcraft Part Number : XAL7070-182
* Inductance = 1.8uH
*======================================================================
* Model Parameters:
*   Valid Frequency Range = 0.1MHz-75MHz
*   Ambient Temperature = 25 degC
*   Inductor Saturation Model
*   Use model for Time Domain simulations
*======================================================================
.subckt XAL7070-182_sat port1 port2 PARAMS: Cpar=8.887pF Ind=1.8uH
X1 port1 port2 Model1C PARAMS:
+ R1=7.4
+ R2=0.00405
+ C= {Cpar}
+ K1=0.000001
+ K2=0.191
+ K3= {Ind}
+ K4=0.0079
+ K5=0.9
+ L=1.7663E-06
+ Is=47.9266
+ a=0.772
+ L_Z0=0
+ L_EL=0
+ L_F0=0E6
+ PkZ=1145.72607
.ends XAL7070-182_sat

*======================================================================
* SPICE Model generated by Coilcraft
* Coilcraft Part Number : XAL7070-222
* Inductance = 2.2uH
*======================================================================
* Model Parameters:
*   Valid Frequency Range = 0.1MHz-75MHz
*   Ambient Temperature = 25 degC
*   Inductor Frequency Model
*   Use model for Frequency Domain simulations
*======================================================================
.subckt XAL7070-222_freq port1 port2 PARAMS: Cpar=8.62pF Ind=2.2uH
X1 port1 port2 Model1A PARAMS:
+ R1=10.7
+ R2=0.00573
+ C= {Cpar}
+ K1=0.000151
+ K2=0.263
+ K3= {Ind}
+ K4=0.0158
+ K5=0.000001
+ L=2.3445E-06
+ Is=45.4094
+ a=0.7529
+ L_Z0=0
+ L_EL=0
+ L_F0=0E6
+ PkZ=1489.07273
.ends XAL7070-222_freq

*======================================================================
* SPICE Model generated by Coilcraft
* Coilcraft Part Number : XAL7070-222
* Inductance = 2.2uH
*======================================================================
* Model Parameters:
*   Valid Frequency Range = 0.1MHz-75MHz
*   Ambient Temperature = 25 degC
*   Inductor Saturation Model
*   Use model for Time Domain simulations
*======================================================================
.subckt XAL7070-222_sat port1 port2 PARAMS: Cpar=8.397pF Ind=2.2uH
X1 port1 port2 Model1C PARAMS:
+ R1=10.7
+ R2=0.00573
+ C= {Cpar}
+ K1=0.000151
+ K2=0.263
+ K3= {Ind}
+ K4=0.0158
+ K5=0.000001
+ L=2.3445E-06
+ Is=45.4094
+ a=0.7529
+ L_Z0=0
+ L_EL=0
+ L_F0=0E6
+ PkZ=1489.07273
.ends XAL7070-222_sat

*======================================================================
* SPICE Model generated by Coilcraft
* Coilcraft Part Number : XAL7070-332
* Inductance = 3.3uH
*======================================================================
* Model Parameters:
*   Valid Frequency Range = 0.1MHz-75MHz
*   Ambient Temperature = 25 degC
*   Inductor Frequency Model
*   Use model for Frequency Domain simulations
*======================================================================
.subckt XAL7070-332_freq port1 port2 PARAMS: Cpar=8.62pF Ind=3.3uH
X1 port1 port2 Model1A PARAMS:
+ R1=11.1
+ R2=0.00856
+ C= {Cpar}
+ K1=0.0000575
+ K2=0.401
+ K3= {Ind}
+ K4=0.0172
+ K5=0.126
+ L=3.0822E-06
+ Is=53.7161
+ a=0.6324
+ L_Z0=0
+ L_EL=0
+ L_F0=0E6
+ PkZ=2085.06454
.ends XAL7070-332_freq

*======================================================================
* SPICE Model generated by Coilcraft
* Coilcraft Part Number : XAL7070-332
* Inductance = 3.3uH
*======================================================================
* Model Parameters:
*   Valid Frequency Range = 0.1MHz-75MHz
*   Ambient Temperature = 25 degC
*   Inductor Saturation Model
*   Use model for Time Domain simulations
*======================================================================
.subckt XAL7070-332_sat port1 port2 PARAMS: Cpar=7.94pF Ind=3.3uH
X1 port1 port2 Model1C PARAMS:
+ R1=11.1
+ R2=0.00856
+ C= {Cpar}
+ K1=0.0000575
+ K2=0.401
+ K3= {Ind}
+ K4=0.0172
+ K5=0.126
+ L=3.0822E-06
+ Is=53.7161
+ a=0.6324
+ L_Z0=0
+ L_EL=0
+ L_F0=0E6
+ PkZ=2085.06454
.ends XAL7070-332_sat

*======================================================================
* SPICE Model generated by Coilcraft
* Coilcraft Part Number : XAL7070-472
* Inductance = 4.7uH
*======================================================================
* Model Parameters:
*   Valid Frequency Range = 0.1MHz-50MHz
*   Ambient Temperature = 25 degC
*   Inductor Frequency Model
*   Use model for Frequency Domain simulations
*======================================================================
.subckt XAL7070-472_freq port1 port2 PARAMS: Cpar=10pF Ind=4.7uH
X1 port1 port2 Model1A PARAMS:
+ R1=18.3
+ R2=0.01296
+ C= {Cpar}
+ K1=0.000001
+ K2=0.581
+ K3= {Ind}
+ K4=0.0316
+ K5=0.053
+ L=4.8595E-06
+ Is=31.2329
+ a=0.7718
+ L_Z0=0
+ L_EL=0
+ L_F0=0E6
+ PkZ=2554.56491
.ends XAL7070-472_freq

*======================================================================
* SPICE Model generated by Coilcraft
* Coilcraft Part Number : XAL7070-472
* Inductance = 4.7uH
*======================================================================
* Model Parameters:
*   Valid Frequency Range = 0.1MHz-50MHz
*   Ambient Temperature = 25 degC
*   Inductor Saturation Model
*   Use model for Time Domain simulations
*======================================================================
.subckt XAL7070-472_sat port1 port2 PARAMS: Cpar=9.057pF Ind=4.7uH
X1 port1 port2 Model1C PARAMS:
+ R1=18.3
+ R2=0.01296
+ C= {Cpar}
+ K1=0.000001
+ K2=0.581
+ K3= {Ind}
+ K4=0.0316
+ K5=0.053
+ L=4.8595E-06
+ Is=31.2329
+ a=0.7718
+ L_Z0=0
+ L_EL=0
+ L_F0=0E6
+ PkZ=2554.56491
.ends XAL7070-472_sat

*======================================================================
* SPICE Model generated by Coilcraft
* Coilcraft Part Number : XAL7070-562
* Inductance = 5.6uH
*======================================================================
* Model Parameters:
*   Valid Frequency Range = 0.1MHz-30MHz
*   Ambient Temperature = 25 degC
*   Inductor Frequency Model
*   Use model for Frequency Domain simulations
*======================================================================
.subckt XAL7070-562_freq port1 port2 PARAMS: Cpar=8.9pF Ind=5.6uH
X1 port1 port2 Model1A PARAMS:
+ R1=21.5
+ R2=0.01367
+ C= {Cpar}
+ K1=0.000001
+ K2=0.597
+ K3= {Ind}
+ K4=0.044
+ K5=0.0008
+ L=5.5845E-06
+ Is=32.763
+ a=0.6795
+ L_Z0=0
+ L_EL=0
+ L_F0=0E6
+ PkZ=2612.40893
.ends XAL7070-562_freq

*======================================================================
* SPICE Model generated by Coilcraft
* Coilcraft Part Number : XAL7070-562
* Inductance = 5.6uH
*======================================================================
* Model Parameters:
*   Valid Frequency Range = 0.1MHz-30MHz
*   Ambient Temperature = 25 degC
*   Inductor Saturation Model
*   Use model for Time Domain simulations
*======================================================================
.subckt XAL7070-562_sat port1 port2 PARAMS: Cpar=8.215pF Ind=5.6uH
X1 port1 port2 Model1C PARAMS:
+ R1=21.5
+ R2=0.01367
+ C= {Cpar}
+ K1=0.000001
+ K2=0.597
+ K3= {Ind}
+ K4=0.044
+ K5=0.0008
+ L=5.5845E-06
+ Is=32.763
+ a=0.6795
+ L_Z0=0
+ L_EL=0
+ L_F0=0E6
+ PkZ=2612.40893
.ends XAL7070-562_sat

*======================================================================
* SPICE Model generated by Coilcraft
* Coilcraft Part Number : XAL7070-682
* Inductance = 6.8uH
*======================================================================
* Model Parameters:
*   Valid Frequency Range = 0.1MHz-30MHz
*   Ambient Temperature = 25 degC
*   Inductor Frequency Model
*   Use model for Frequency Domain simulations
*======================================================================
.subckt XAL7070-682_freq port1 port2 PARAMS: Cpar=10.1pF Ind=6.8uH
X1 port1 port2 Model1A PARAMS:
+ R1=23
+ R2=0.01784
+ C= {Cpar}
+ K1=0.000001
+ K2=0.869
+ K3= {Ind}
+ K4=0.044
+ K5=0.0008
+ L=6.6715E-06
+ Is=32.0765
+ a=0.688
+ L_Z0=0
+ L_EL=0
+ L_F0=0E6
+ PkZ=3392.03908
.ends XAL7070-682_freq

*======================================================================
* SPICE Model generated by Coilcraft
* Coilcraft Part Number : XAL7070-682
* Inductance = 6.8uH
*======================================================================
* Model Parameters:
*   Valid Frequency Range = 0.1MHz-30MHz
*   Ambient Temperature = 25 degC
*   Inductor Saturation Model
*   Use model for Time Domain simulations
*======================================================================
.subckt XAL7070-682_sat port1 port2 PARAMS: Cpar=9.47pF Ind=6.8uH
X1 port1 port2 Model1C PARAMS:
+ R1=23
+ R2=0.01784
+ C= {Cpar}
+ K1=0.000001
+ K2=0.869
+ K3= {Ind}
+ K4=0.044
+ K5=0.0008
+ L=6.6715E-06
+ Is=32.0765
+ a=0.688
+ L_Z0=0
+ L_EL=0
+ L_F0=0E6
+ PkZ=3392.03908
.ends XAL7070-682_sat

*======================================================================
* SPICE Model generated by Coilcraft
* Coilcraft Part Number : XAL7070-103
* Inductance = 10uH
*======================================================================
* Model Parameters:
*   Valid Frequency Range = 0.1MHz-30MHz
*   Ambient Temperature = 25 degC
*   Inductor Frequency Model
*   Use model for Frequency Domain simulations
*======================================================================
.subckt XAL7070-103_freq port1 port2 PARAMS: Cpar=19.88pF Ind=10uH
X1 port1 port2 Model1A PARAMS:
+ R1=12
+ R2=0.01754
+ C= {Cpar}
+ K1=0.000001
+ K2=1.15
+ K3= {Ind}
+ K4=0.000001
+ K5=0.000677
+ L=1.0612E-05
+ Is=15.6236
+ a=0.7256
+ L_Z0=0
+ L_EL=0
+ L_F0=0E6
+ PkZ=3537.64755
.ends XAL7070-103_freq

*======================================================================
* SPICE Model generated by Coilcraft
* Coilcraft Part Number : XAL7070-103
* Inductance = 10uH
*======================================================================
* Model Parameters:
*   Valid Frequency Range = 0.1MHz-30MHz
*   Ambient Temperature = 25 degC
*   Inductor Saturation Model
*   Use model for Time Domain simulations
*======================================================================
.subckt XAL7070-103_sat port1 port2 PARAMS: Cpar=19.88pF Ind=10uH
X1 port1 port2 Model1C PARAMS:
+ R1=12
+ R2=0.01754
+ C= {Cpar}
+ K1=0.000001
+ K2=1.15
+ K3= {Ind}
+ K4=0.000001
+ K5=0.000677
+ L=1.0612E-05
+ Is=15.6236
+ a=0.7256
+ L_Z0=0
+ L_EL=0
+ L_F0=0E6
+ PkZ=3537.64755
.ends XAL7070-103_sat

*======================================================================
* SPICE Model generated by Coilcraft
* Coilcraft Part Number : XAL7070-123
* Inductance = 12uH
*======================================================================
* Model Parameters:
*   Valid Frequency Range = 0.1MHz-30MHz
*   Ambient Temperature = 25 degC
*   Inductor Frequency Model
*   Use model for Frequency Domain simulations
*======================================================================
.subckt XAL7070-123_freq port1 port2 PARAMS: Cpar=17.74pF Ind=12uH
X1 port1 port2 Model1A PARAMS:
+ R1=12
+ R2=0.01933
+ C= {Cpar}
+ K1=0.000001
+ K2=1.18
+ K3= {Ind}
+ K4=0.0846
+ K5=0.000664
+ L=1.1819E-05
+ Is=15.9175
+ a=0.7118
+ L_Z0=0
+ L_EL=0
+ L_F0=0E6
+ PkZ=3684.60192
.ends XAL7070-123_freq

*======================================================================
* SPICE Model generated by Coilcraft
* Coilcraft Part Number : XAL7070-123
* Inductance = 12uH
*======================================================================
* Model Parameters:
*   Valid Frequency Range = 0.1MHz-30MHz
*   Ambient Temperature = 25 degC
*   Inductor Saturation Model
*   Use model for Time Domain simulations
*======================================================================
.subckt XAL7070-123_sat port1 port2 PARAMS: Cpar=16.628pF Ind=12uH
X1 port1 port2 Model1C PARAMS:
+ R1=12
+ R2=0.01933
+ C= {Cpar}
+ K1=0.000001
+ K2=1.18
+ K3= {Ind}
+ K4=0.0846
+ K5=0.000664
+ L=1.1819E-05
+ Is=15.9175
+ a=0.7118
+ L_Z0=0
+ L_EL=0
+ L_F0=0E6
+ PkZ=3684.60192
.ends XAL7070-123_sat

*======================================================================
* SPICE Model generated by Coilcraft
* Coilcraft Part Number : XAL7070-153
* Inductance = 15uH
*======================================================================
* Model Parameters:
*   Valid Frequency Range = 0.1MHz-30MHz
*   Ambient Temperature = 25 degC
*   Inductor Frequency Model
*   Use model for Frequency Domain simulations
*======================================================================
.subckt XAL7070-153_freq port1 port2 PARAMS: Cpar=19.36pF Ind=15uH
X1 port1 port2 Model1A PARAMS:
+ R1=19
+ R2=0.02567
+ C= {Cpar}
+ K1=0.000032
+ K2=1.4
+ K3= {Ind}
+ K4=0.0797
+ K5=0.000493
+ L=1.4906E-05
+ Is=15.3423
+ a=0.693
+ L_Z0=0
+ L_EL=0
+ L_F0=0E6
+ PkZ=3893.20203
.ends XAL7070-153_freq

*======================================================================
* SPICE Model generated by Coilcraft
* Coilcraft Part Number : XAL7070-153
* Inductance = 15uH
*======================================================================
* Model Parameters:
*   Valid Frequency Range = 0.1MHz-30MHz
*   Ambient Temperature = 25 degC
*   Inductor Saturation Model
*   Use model for Time Domain simulations
*======================================================================
.subckt XAL7070-153_sat port1 port2 PARAMS: Cpar=18.492pF Ind=15uH
X1 port1 port2 Model1C PARAMS:
+ R1=19
+ R2=0.02567
+ C= {Cpar}
+ K1=0.000032
+ K2=1.4
+ K3= {Ind}
+ K4=0.0797
+ K5=0.000493
+ L=1.4906E-05
+ Is=15.3423
+ a=0.693
+ L_Z0=0
+ L_EL=0
+ L_F0=0E6
+ PkZ=3893.20203
.ends XAL7070-153_sat

*======================================================================
* SPICE Model generated by Coilcraft
* Coilcraft Part Number : XAL7070-183
* Inductance = 18uH
*======================================================================
* Model Parameters:
*   Valid Frequency Range = 0.1MHz-30MHz
*   Ambient Temperature = 25 degC
*   Inductor Frequency Model
*   Use model for Frequency Domain simulations
*======================================================================
.subckt XAL7070-183_freq port1 port2 PARAMS: Cpar=21.21pF Ind=18uH
X1 port1 port2 Model1A PARAMS:
+ R1=18
+ R2=0.02854
+ C= {Cpar}
+ K1=0.0000327
+ K2=1.64
+ K3= {Ind}
+ K4=0.146
+ K5=0.00243
+ L=1.7256E-05
+ Is=13.9909
+ a=0.6856
+ L_Z0=0
+ L_EL=0
+ L_F0=0E6
+ PkZ=4302.92349
.ends XAL7070-183_freq

*======================================================================
* SPICE Model generated by Coilcraft
* Coilcraft Part Number : XAL7070-183
* Inductance = 18uH
*======================================================================
* Model Parameters:
*   Valid Frequency Range = 0.1MHz-30MHz
*   Ambient Temperature = 25 degC
*   Inductor Saturation Model
*   Use model for Time Domain simulations
*======================================================================
.subckt XAL7070-183_sat port1 port2 PARAMS: Cpar=19.508pF Ind=18uH
X1 port1 port2 Model1C PARAMS:
+ R1=18
+ R2=0.02854
+ C= {Cpar}
+ K1=0.0000327
+ K2=1.64
+ K3= {Ind}
+ K4=0.146
+ K5=0.00243
+ L=1.7256E-05
+ Is=13.9909
+ a=0.6856
+ L_Z0=0
+ L_EL=0
+ L_F0=0E6
+ PkZ=4302.92349
.ends XAL7070-183_sat

*======================================================================
* SPICE Model generated by Coilcraft
* Coilcraft Part Number : XAL7070-223
* Inductance = 22uH
*======================================================================
* Model Parameters:
*   Valid Frequency Range = 0.1MHz-30MHz
*   Ambient Temperature = 25 degC
*   Inductor Frequency Model
*   Use model for Frequency Domain simulations
*======================================================================
.subckt XAL7070-223_freq port1 port2 PARAMS: Cpar=19.87pF Ind=22uH
X1 port1 port2 Model1A PARAMS:
+ R1=17
+ R2=0.03451
+ C= {Cpar}
+ K1=0.0000326
+ K2=1.88
+ K3= {Ind}
+ K4=0.149
+ K5=0.00244
+ L=2.1165E-05
+ Is=12.2367
+ a=0.6863
+ L_Z0=0
+ L_EL=0
+ L_F0=0E6
+ PkZ=4853.62613
.ends XAL7070-223_freq

*======================================================================
* SPICE Model generated by Coilcraft
* Coilcraft Part Number : XAL7070-223
* Inductance = 22uH
*======================================================================
* Model Parameters:
*   Valid Frequency Range = 0.1MHz-30MHz
*   Ambient Temperature = 25 degC
*   Inductor Saturation Model
*   Use model for Time Domain simulations
*======================================================================
.subckt XAL7070-223_sat port1 port2 PARAMS: Cpar=18.547pF Ind=22uH
X1 port1 port2 Model1C PARAMS:
+ R1=17
+ R2=0.03451
+ C= {Cpar}
+ K1=0.0000326
+ K2=1.88
+ K3= {Ind}
+ K4=0.149
+ K5=0.00244
+ L=2.1165E-05
+ Is=12.2367
+ a=0.6863
+ L_Z0=0
+ L_EL=0
+ L_F0=0E6
+ PkZ=4853.62613
.ends XAL7070-223_sat

*======================================================================
* SPICE Model generated by Coilcraft
* Coilcraft Part Number : XAL7070-333
* Inductance = 33uH
*======================================================================
* Model Parameters:
*   Valid Frequency Range = 0.1MHz-30MHz
*   Ambient Temperature = 25 degC
*   Inductor Frequency Model
*   Use model for Frequency Domain simulations
*======================================================================
.subckt XAL7070-333_freq port1 port2 PARAMS: Cpar=18.85pF Ind=33uH
X1 port1 port2 Model1A PARAMS:
+ R1=21
+ R2=0.05398
+ C= {Cpar}
+ K1=0.0000327
+ K2=2.76
+ K3= {Ind}
+ K4=0.277
+ K5=0.003
+ L=3.2284E-05
+ Is=9.7302