*======================================================================
* SPICE Model generated by Coilcraft
* Coilcraft Part Number : XAL7020-151
* Inductance = 150nH
*======================================================================
* Model Parameters:
*   Valid Frequency Range = 0.1MHz-300MHz
*   Ambient Temperature = 25 degC
*   Inductor Frequency Model
*   Use model for Frequency Domain simulations
*======================================================================
.subckt XAL7020-151_freq port1 port2 PARAMS: Cpar=6.9pF Ind=0.15uH
X1 port1 port2 Model1A PARAMS:
+ R1=10
+ R2=0.0019
+ C= {Cpar}
+ K1=0.00002
+ K2=0.02
+ K3= {Ind}
+ K4=0.0001
+ K5=0.000005
+ L=1.418E-07
+ Is=129.5386
+ a=0.5947
+ L_Z0=0
+ L_EL=0
+ L_F0=0E6
+ PkZ=223.980017
.ends XAL7020-151_freq

*======================================================================
* SPICE Model generated by Coilcraft
* Coilcraft Part Number : XAL7020-151
* Inductance = 150nH
*======================================================================
* Model Parameters:
*   Valid Frequency Range = 0.1MHz-300MHz
*   Ambient Temperature = 25 degC
*   Inductor Saturation Model
*   Use model for Time Domain simulations
*======================================================================
.subckt XAL7020-151_sat port1 port2 PARAMS: Cpar=6.869pF Ind=0.15uH
X1 port1 port2 Model1C PARAMS:
+ R1=10
+ R2=0.0019
+ C= {Cpar}
+ K1=0.00002
+ K2=0.02
+ K3= {Ind}
+ K4=0.0001
+ K5=0.000005
+ L=1.418E-07
+ Is=129.5386
+ a=0.5947
+ L_Z0=0
+ L_EL=0
+ L_F0=0E6
+ PkZ=223.980017
.ends XAL7020-151_sat

*======================================================================
* SPICE Model generated by Coilcraft
* Coilcraft Part Number : XAL7020-271
* Inductance = 270nH
*======================================================================
* Model Parameters:
*   Valid Frequency Range = 0.1MHz-300MHz
*   Ambient Temperature = 25 degC
*   Inductor Frequency Model
*   Use model for Frequency Domain simulations
*======================================================================
.subckt XAL7020-271_freq port1 port2 PARAMS: Cpar=8.3pF Ind=0.27uH
X1 port1 port2 Model1A PARAMS:
+ R1=9
+ R2=0.0029
+ C= {Cpar}
+ K1=0.00005
+ K2=0.042
+ K3= {Ind}
+ K4=0.002
+ K5=0.000007
+ L=2.607E-07
+ Is=109.468
+ a=0.5158
+ L_Z0=0
+ L_EL=0
+ L_F0=0E6
+ PkZ=386.488167
.ends XAL7020-271_freq

*======================================================================
* SPICE Model generated by Coilcraft
* Coilcraft Part Number : XAL7020-271
* Inductance = 270nH
*======================================================================
* Model Parameters:
*   Valid Frequency Range = 0.1MHz-300MHz
*   Ambient Temperature = 25 degC
*   Inductor Saturation Model
*   Use model for Time Domain simulations
*======================================================================
.subckt XAL7020-271_sat port1 port2 PARAMS: Cpar=7.893pF Ind=0.27uH
X1 port1 port2 Model1C PARAMS:
+ R1=9
+ R2=0.0029
+ C= {Cpar}
+ K1=0.00005
+ K2=0.042
+ K3= {Ind}
+ K4=0.002
+ K5=0.000007
+ L=2.607E-07
+ Is=109.468
+ a=0.5158
+ L_Z0=0
+ L_EL=0
+ L_F0=0E6
+ PkZ=386.488167
.ends XAL7020-271_sat

*======================================================================
* SPICE Model generated by Coilcraft
* Coilcraft Part Number : XAL7020-331
* Inductance = 330nH
*======================================================================
* Model Parameters:
*   Valid Frequency Range = 0.1MHz-200MHz
*   Ambient Temperature = 25 degC
*   Inductor Frequency Model
*   Use model for Frequency Domain simulations
*======================================================================
.subckt XAL7020-331_freq port1 port2 PARAMS: Cpar=8.6pF Ind=0.33uH
X1 port1 port2 Model1A PARAMS:
+ R1=8
+ R2=0.004
+ C= {Cpar}
+ K1=0.00005
+ K2=0.045
+ K3= {Ind}
+ K4=0.00015
+ K5=0.000001
+ L=3.439E-07
+ Is=80.9864
+ a=0.5751
+ L_Z0=0
+ L_EL=0
+ L_F0=0E6
+ PkZ=398.985208
.ends XAL7020-331_freq

*======================================================================
* SPICE Model generated by Coilcraft
* Coilcraft Part Number : XAL7020-331
* Inductance = 330nH
*======================================================================
* Model Parameters:
*   Valid Frequency Range = 0.1MHz-200MHz
*   Ambient Temperature = 25 degC
*   Inductor Saturation Model
*   Use model for Time Domain simulations
*======================================================================
.subckt XAL7020-331_sat port1 port2 PARAMS: Cpar=8.582pF Ind=0.33uH
X1 port1 port2 Model1C PARAMS:
+ R1=8
+ R2=0.004
+ C= {Cpar}
+ K1=0.00005
+ K2=0.045
+ K3= {Ind}
+ K4=0.00015
+ K5=0.000001
+ L=3.439E-07
+ Is=80.9864
+ a=0.5751
+ L_Z0=0
+ L_EL=0
+ L_F0=0E6
+ PkZ=398.985208
.ends XAL7020-331_sat

*======================================================================
* SPICE Model generated by Coilcraft
* Coilcraft Part Number : XAL7020-471
* Inductance = 470nH
*======================================================================
* Model Parameters:
*   Valid Frequency Range = 0.1MHz-200MHz
*   Ambient Temperature = 25 degC
*   Inductor Frequency Model
*   Use model for Frequency Domain simulations
*======================================================================
.subckt XAL7020-471_freq port1 port2 PARAMS: Cpar=10pF Ind=0.47uH
X1 port1 port2 Model1A PARAMS:
+ R1=8.5
+ R2=0.0053
+ C= {Cpar}
+ K1=0.0001
+ K2=0.086
+ K3= {Ind}
+ K4=0.002
+ K5=0.000006
+ L=4.606E-07
+ Is=90.9306
+ a=0.4954
+ L_Z0=0
+ L_EL=0
+ L_F0=0E6
+ PkZ=644.14288
.ends XAL7020-471_freq

*======================================================================
* SPICE Model generated by Coilcraft
* Coilcraft Part Number : XAL7020-471
* Inductance = 470nH
*======================================================================
* Model Parameters:
*   Valid Frequency Range = 0.1MHz-200MHz
*   Ambient Temperature = 25 degC
*   Inductor Saturation Model
*   Use model for Time Domain simulations
*======================================================================
.subckt XAL7020-471_sat port1 port2 PARAMS: Cpar=9.741pF Ind=0.47uH
X1 port1 port2 Model1C PARAMS:
+ R1=8.5
+ R2=0.0053
+ C= {Cpar}
+ K1=0.0001
+ K2=0.086
+ K3= {Ind}
+ K4=0.002
+ K5=0.000006
+ L=4.606E-07
+ Is=90.9306
+ a=0.4954
+ L_Z0=0
+ L_EL=0
+ L_F0=0E6
+ PkZ=644.14288
.ends XAL7020-471_sat

*======================================================================
* SPICE Model generated by Coilcraft
* Coilcraft Part Number : XAL7020-681
* Inductance = 680nH
*======================================================================
* Model Parameters:
*   Valid Frequency Range = 0.1MHz-200MHz
*   Ambient Temperature = 25 degC
*   Inductor Frequency Model
*   Use model for Frequency Domain simulations
*======================================================================
.subckt XAL7020-681_freq port1 port2 PARAMS: Cpar=11.1pF Ind=0.68uH
X1 port1 port2 Model1A PARAMS:
+ R1=7
+ R2=0.0079
+ C= {Cpar}
+ K1=0.0001
+ K2=0.098
+ K3= {Ind}
+ K4=0.002
+ K5=0.000006
+ L=6.651E-07
+ Is=63.7751
+ a=0.5312
+ L_Z0=0
+ L_EL=0
+ L_F0=0E6
+ PkZ=683.191004
.ends XAL7020-681_freq

*======================================================================
* SPICE Model generated by Coilcraft
* Coilcraft Part Number : XAL7020-681
* Inductance = 680nH
*======================================================================
* Model Parameters:
*   Valid Frequency Range = 0.1MHz-200MHz
*   Ambient Temperature = 25 degC
*   Inductor Saturation Model
*   Use model for Time Domain simulations
*======================================================================
.subckt XAL7020-681_sat port1 port2 PARAMS: Cpar=10.909pF Ind=0.68uH
X1 port1 port2 Model1C PARAMS:
+ R1=7
+ R2=0.0079
+ C= {Cpar}
+ K1=0.0001
+ K2=0.098
+ K3= {Ind}
+ K4=0.002
+ K5=0.000006
+ L=6.651E-07
+ Is=63.7751
+ a=0.5312
+ L_Z0=0
+ L_EL=0
+ L_F0=0E6
+ PkZ=683.191004
.ends XAL7020-681_sat

*======================================================================
* SPICE Model generated by Coilcraft
* Coilcraft Part Number : XAL7020-102
* Inductance = 1uH
*======================================================================
* Model Parameters:
*   Valid Frequency Range = 0.1MHz-200MHz
*   Ambient Temperature = 25 degC
*   Inductor Frequency Model
*   Use model for Frequency Domain simulations
*======================================================================
.subckt XAL7020-102_freq port1 port2 PARAMS: Cpar=5.4pF Ind=1uH
X1 port1 port2 Model1A PARAMS:
+ R1=10
+ R2=0.0098
+ C= {Cpar}
+ K1=0.000175
+ K2=0.19
+ K3= {Ind}
+ K4=0.002
+ K5=0.000004
+ L=8.737E-07
+ Is=50.6587
+ a=0.5646
+ L_Z0=0
+ L_EL=0
+ L_F0=0E6
+ PkZ=1435.36591
.ends XAL7020-102_freq

*======================================================================
* SPICE Model generated by Coilcraft
* Coilcraft Part Number : XAL7020-102
* Inductance = 1uH
*======================================================================
* Model Parameters:
*   Valid Frequency Range = 0.1MHz-200MHz
*   Ambient Temperature = 25 degC
*   Inductor Saturation Model
*   Use model for Time Domain simulations
*======================================================================
.subckt XAL7020-102_sat port1 port2 PARAMS: Cpar=5.339pF Ind=1uH
X1 port1 port2 Model1C PARAMS:
+ R1=10
+ R2=0.0098
+ C= {Cpar}
+ K1=0.000175
+ K2=0.19
+ K3= {Ind}
+ K4=0.002
+ K5=0.000004
+ L=8.737E-07
+ Is=50.6587
+ a=0.5646
+ L_Z0=0
+ L_EL=0
+ L_F0=0E6
+ PkZ=1435.36591
.ends XAL7020-102_sat

*======================================================================
* SPICE Model generated by Coilcraft
* Coilcraft Part Number : XAL7020-122
* Inductance = 1.2uH
*======================================================================
* Model Parameters:
*   Valid Frequency Range = 0.1MHz-200MHz
*   Ambient Temperature = 25 degC
*   Inductor Frequency Model
*   Use model for Frequency Domain simulations
*======================================================================
.subckt XAL7020-122_freq port1 port2 PARAMS: Cpar=4.7pF Ind=1.2uH
X1 port1 port2 Model1A PARAMS:
+ R1=15
+ R2=0.0115
+ C= {Cpar}
+ K1=0.000185
+ K2=0.19
+ K3= {Ind}
+ K4=0.004
+ K5=0.000005
+ L=1.1082E-06
+ Is=53.3702
+ a=0.5418
+ L_Z0=0
+ L_EL=0
+ L_F0=0E6
+ PkZ=1417.00519
.ends XAL7020-122_freq

*======================================================================
* SPICE Model generated by Coilcraft
* Coilcraft Part Number : XAL7020-122
* Inductance = 1.2uH
*======================================================================
* Model Parameters:
*   Valid Frequency Range = 0.1MHz-200MHz
*   Ambient Temperature = 25 degC
*   Inductor Saturation Model
*   Use model for Time Domain simulations
*======================================================================
.subckt XAL7020-122_sat port1 port2 PARAMS: Cpar=4.609pF Ind=1.2uH
X1 port1 port2 Model1C PARAMS:
+ R1=15
+ R2=0.0115
+ C= {Cpar}
+ K1=0.000185
+ K2=0.19
+ K3= {Ind}
+ K4=0.004
+ K5=0.000005
+ L=1.1082E-06
+ Is=53.3702
+ a=0.5418
+ L_Z0=0
+ L_EL=0
+ L_F0=0E6
+ PkZ=1417.00519
.ends XAL7020-122_sat

*======================================================================
* SPICE Model generated by Coilcraft
* Coilcraft Part Number : XAL7020-152
* Inductance = 1.5uH
*======================================================================
* Model Parameters:
*   Valid Frequency Range = 0.1MHz-100MHz
*   Ambient Temperature = 25 degC
*   Inductor Frequency Model
*   Use model for Frequency Domain simulations
*======================================================================
.subckt XAL7020-152_freq port1 port2 PARAMS: Cpar=14.5pF Ind=1.5uH
X1 port1 port2 Model1A PARAMS:
+ R1=6.5
+ R2=0.0167
+ C= {Cpar}
+ K1=0.00015
+ K2=0.32
+ K3= {Ind}
+ K4=0.006
+ K5=0.000008
+ L=1.5171E-06
+ Is=44.2086
+ a=0.5734
+ L_Z0=0
+ L_EL=0
+ L_F0=0E6
+ PkZ=1653.24058
.ends XAL7020-152_freq

*======================================================================
* SPICE Model generated by Coilcraft
* Coilcraft Part Number : XAL7020-152
* Inductance = 1.5uH
*======================================================================
* Model Parameters:
*   Valid Frequency Range = 0.1MHz-100MHz
*   Ambient Temperature = 25 degC
*   Inductor Saturation Model
*   Use model for Time Domain simulations
*======================================================================
.subckt XAL7020-152_sat port1 port2 PARAMS: Cpar=14.175pF Ind=1.5uH
X1 port1 port2 Model1C PARAMS:
+ R1=6.5
+ R2=0.0167
+ C= {Cpar}
+ K1=0.00015
+ K2=0.32
+ K3= {Ind}
+ K4=0.006
+ K5=0.000008
+ L=1.5171E-06
+ Is=44.2086
+ a=0.5734
+ L_Z0=0
+ L_EL=0
+ L_F0=0E6
+ PkZ=1653.24058
.ends XAL7020-152_sat

*======================================================================
* SPICE Model generated by Coilcraft
* Coilcraft Part Number : XAL7020-222
* Inductance = 2.2uH
*======================================================================
* Model Parameters:
*   Valid Frequency Range = 0.1MHz-200MHz
*   Ambient Temperature = 25 degC
*   Inductor Frequency Model
*   Use model for Frequency Domain simulations
*======================================================================
.subckt XAL7020-222_freq port1 port2 PARAMS: Cpar=13.4pF Ind=2.2uH
X1 port1 port2 Model1A PARAMS:
+ R1=6
+ R2=0.0244
+ C= {Cpar}
+ K1=0.00015
+ K2=0.45
+ K3= {Ind}
+ K4=0.005
+ K5=0.000007
+ L=2.1917E-06
+ Is=32.5261
+ a=0.6329
+ L_Z0=0
+ L_EL=0
+ L_F0=0E6
+ PkZ=2216.28956
.ends XAL7020-222_freq

*======================================================================
* SPICE Model generated by Coilcraft
* Coilcraft Part Number : XAL7020-222
* Inductance = 2.2uH
*======================================================================
* Model Parameters:
*   Valid Frequency Range = 0.1MHz-200MHz
*   Ambient Temperature = 25 degC
*   Inductor Saturation Model
*   Use model for Time Domain simulations
*======================================================================
.subckt XAL7020-222_sat port1 port2 PARAMS: Cpar=13.238pF Ind=2.2uH
X1 port1 port2 Model1C PARAMS:
+ R1=6
+ R2=0.0244
+ C= {Cpar}
+ K1=0.00015
+ K2=0.45
+ K3= {Ind}
+ K4=0.005
+ K5=0.000007
+ L=2.1917E-06
+ Is=32.5261
+ a=0.6329
+ L_Z0=0
+ L_EL=0
+ L_F0=0E6
+ PkZ=2216.28956
.ends XAL7020-222_sat

*======================================================================
* SPICE Model generated by Coilcraft
* Coilcraft Saturation Inductor Model
*======================================================================
* Model Parameters:
*   Valid Frequency Range Varies by Inductor
*   Ambient Temperature = 25 degC
*   Current Saturable Inductor Model
*======================================================================
.subckt Model1C Lin Lout PARAMS:
+ R1=1
+ R2=1
+ C=1
+ L=1
+ Is=1
+ a=1
+ PkZ=94.2 * {L} *1e6
R2 Lin N001 {R2}
R3 N001 Lout {PkZ}
C1 N001 N002 {C}
R1 N002 Lout {R1}
L1 N001 Lout flux={L*Is}*pwrs(tanh(pwrs((x/{Is}),{a})),{1/a})
.ends Model1C





*======================================================================
* SPICE Model generated by Coilcraft
* Coilcraft Power Inductor Model
*======================================================================
* Model Parameters:
*   Valid Frequency Range Varies by Inductor
*   Ambient Temperature = 25 degC
*   DC Bias Current = 0 A
*   Frequency Dependent Inductor Model
*======================================================================
.subckt Model1A Lin Lout PARAMS:
+ R1=1
+ R2=1
+ C=1
+ K1=1
+ K2=1
+ K3=1
+ K4=1
+ K5=1
R2 N001 Lin {R2}
R1 Lout N002 {R1}
C1 N002 N001 {C}
G_Rvar2 N001 Lout LAPLACE { V(N001, Lout) } {1/K2/(-S*S/4/PI^2)^0.25}
G_Rvar1 N001 N003 LAPLACE { V(N001, N003) } {1/K1/(-S*S/4/PI^2)^0.25}
G_Lvar N003 Lout  LAPLACE { V(N003, Lout) } {1/(S*1e-6*({K3*1e6}-({K4}*LOG({K5}*(sqrt(-S*S)/(2*pi))))))}
*This large resistance to ground has been added to prevent a floating node error
R3 N003 0 100Meg
.ends Model1A


.subckt Coilcraft_Inductor Lin Lout
R1 Lout Lin 100Meg
.ends Coilcraft_Inductor
