*======================================================================
* SPICE Model generated by Coilcraft
* Coilcraft Part Number : XAL7050-103
* Inductance = 10uH
*======================================================================
* Model Parameters:
*   Valid Frequency Range = 0.1MHz-30MHz
*   Ambient Temperature = 25 degC
*   Inductor Frequency Model
*   Use model for Frequency Domain simulations
*======================================================================
.subckt XAL7050-103_freq port1 port2 PARAMS: Cpar=15pF Ind=10uH
X1 port1 port2 Model1A PARAMS:
+ R1=23
+ R2=0.025
+ C= {Cpar}
+ K1=0.000001
+ K2=1.36
+ K3= {Ind}
+ K4=0.057
+ K5=0.000001
+ L=1.0565E-05
+ Is=13.7196
+ a=0.7752
+ L_Z0=0
+ L_EL=0
+ L_F0=0E6
+ PkZ=4197.90582
.ends XAL7050-103_freq

*======================================================================
* SPICE Model generated by Coilcraft
* Coilcraft Part Number : XAL7050-103
* Inductance = 10uH
*======================================================================
* Model Parameters:
*   Valid Frequency Range = 0.1MHz-30MHz
*   Ambient Temperature = 25 degC
*   Inductor Saturation Model
*   Use model for Time Domain simulations
*======================================================================
.subckt XAL7050-103_sat port1 port2 PARAMS: Cpar=14.781pF Ind=10uH
X1 port1 port2 Model1C PARAMS:
+ R1=23
+ R2=0.025
+ C= {Cpar}
+ K1=0.000001
+ K2=1.36
+ K3= {Ind}
+ K4=0.057
+ K5=0.000001
+ L=1.0565E-05
+ Is=13.7196
+ a=0.7752
+ L_Z0=0
+ L_EL=0
+ L_F0=0E6
+ PkZ=4197.90582
.ends XAL7050-103_sat

*======================================================================
* SPICE Model generated by Coilcraft
* Coilcraft Part Number : XAL7050-153
* Inductance = 15uH
*======================================================================
* Model Parameters:
*   Valid Frequency Range = 0.1MHz-25MHz
*   Ambient Temperature = 25 degC
*   Inductor Frequency Model
*   Use model for Frequency Domain simulations
*======================================================================
.subckt XAL7050-153_freq port1 port2 PARAMS: Cpar=16.8pF Ind=15uH
X1 port1 port2 Model1A PARAMS:
+ R1=27
+ R2=0.035
+ C= {Cpar}
+ K1=0.000001
+ K2=2
+ K3= {Ind}
+ K4=0.025
+ K5=0.000001
+ L=1.5192E-05
+ Is=13.6129
+ a=0.728
+ L_Z0=0
+ L_EL=0
+ L_F0=0E6
+ PkZ=5316.47984
.ends XAL7050-153_freq

*======================================================================
* SPICE Model generated by Coilcraft
* Coilcraft Part Number : XAL7050-153
* Inductance = 15uH
*======================================================================
* Model Parameters:
*   Valid Frequency Range = 0.1MHz-25MHz
*   Ambient Temperature = 25 degC
*   Inductor Saturation Model
*   Use model for Time Domain simulations
*======================================================================
.subckt XAL7050-153_sat port1 port2 PARAMS: Cpar=16.735pF Ind=15uH
X1 port1 port2 Model1C PARAMS:
+ R1=27
+ R2=0.035
+ C= {Cpar}
+ K1=0.000001
+ K2=2
+ K3= {Ind}
+ K4=0.025
+ K5=0.000001
+ L=1.5192E-05
+ Is=13.6129
+ a=0.728
+ L_Z0=0
+ L_EL=0
+ L_F0=0E6
+ PkZ=5316.47984
.ends XAL7050-153_sat

*======================================================================
* SPICE Model generated by Coilcraft
* Coilcraft Part Number : XAL7050-183
* Inductance = 18uH
*======================================================================
* Model Parameters:
*   Valid Frequency Range = 0.1MHz-20MHz
*   Ambient Temperature = 25 degC
*   Inductor Frequency Model
*   Use model for Frequency Domain simulations
*======================================================================
.subckt XAL7050-183_freq port1 port2 PARAMS: Cpar=16.8pF Ind=18uH
X1 port1 port2 Model1A PARAMS:
+ R1=25
+ R2=0.043
+ C= {Cpar}
+ K1=0.000001
+ K2=2.45
+ K3= {Ind}
+ K4=0.125
+ K5=0.000001
+ L=1.9189E-05
+ Is=11.4861
+ a=0.7478
+ L_Z0=0
+ L_EL=0
+ L_F0=0E6
+ PkZ=6325.79412
.ends XAL7050-183_freq

*======================================================================
* SPICE Model generated by Coilcraft
* Coilcraft Part Number : XAL7050-183
* Inductance = 18uH
*======================================================================
* Model Parameters:
*   Valid Frequency Range = 0.1MHz-20MHz
*   Ambient Temperature = 25 degC
*   Inductor Saturation Model
*   Use model for Time Domain simulations
*======================================================================
.subckt XAL7050-183_sat port1 port2 PARAMS: Cpar=16.542pF Ind=18uH
X1 port1 port2 Model1C PARAMS:
+ R1=25
+ R2=0.043
+ C= {Cpar}
+ K1=0.000001
+ K2=2.45
+ K3= {Ind}
+ K4=0.125
+ K5=0.000001
+ L=1.9189E-05
+ Is=11.4861
+ a=0.7478
+ L_Z0=0
+ L_EL=0
+ L_F0=0E6
+ PkZ=6325.79412
.ends XAL7050-183_sat

*======================================================================
* SPICE Model generated by Coilcraft
* Coilcraft Part Number : XAL7050-223
* Inductance = 22uH
*======================================================================
* Model Parameters:
*   Valid Frequency Range = 0.1MHz-15MHz
*   Ambient Temperature = 25 degC
*   Inductor Frequency Model
*   Use model for Frequency Domain simulations
*======================================================================
.subckt XAL7050-223_freq port1 port2 PARAMS: Cpar=16.5pF Ind=22uH
X1 port1 port2 Model1A PARAMS:
+ R1=50
+ R2=0.06
+ C= {Cpar}
+ K1=0.0002
+ K2=2.75
+ K3= {Ind}
+ K4=0.000001
+ K5=0.000001
+ L=2.1894E-05
+ Is=12.4497
+ a=0.6793
+ L_Z0=0
+ L_EL=0
+ L_F0=0E6
+ PkZ=6109.28794
.ends XAL7050-223_freq

*======================================================================
* SPICE Model generated by Coilcraft
* Coilcraft Part Number : XAL7050-223
* Inductance = 22uH
*======================================================================
* Model Parameters:
*   Valid Frequency Range = 0.1MHz-15MHz
*   Ambient Temperature = 25 degC
*   Inductor Saturation Model
*   Use model for Time Domain simulations
*======================================================================
.subckt XAL7050-223_sat port1 port2 PARAMS: Cpar=16.5pF Ind=22uH
X1 port1 port2 Model1C PARAMS:
+ R1=50
+ R2=0.06
+ C= {Cpar}
+ K1=0.0002
+ K2=2.75
+ K3= {Ind}
+ K4=0.000001
+ K5=0.000001
+ L=2.1894E-05
+ Is=12.4497
+ a=0.6793
+ L_Z0=0
+ L_EL=0
+ L_F0=0E6
+ PkZ=6109.28794
.ends XAL7050-223_sat

*======================================================================
* SPICE Model generated by Coilcraft
* Coilcraft Part Number : XAL7050-333
* Inductance = 33uH
*======================================================================
* Model Parameters:
*   Valid Frequency Range = 0.1MHz-10MHz
*   Ambient Temperature = 25 degC
*   Inductor Frequency Model
*   Use model for Frequency Domain simulations
*======================================================================
.subckt XAL7050-333_freq port1 port2 PARAMS: Cpar=18pF Ind=33uH
X1 port1 port2 Model1A PARAMS:
+ R1=80
+ R2=0.075
+ C= {Cpar}
+ K1=0.000001
+ K2=5
+ K3= {Ind}
+ K4=0.000001
+ K5=0.000001
+ L=3.4072E-05
+ Is=9.1256
+ a=0.712
+ L_Z0=0
+ L_EL=0
+ L_F0=0E6
+ PkZ=8211.74727
.ends XAL7050-333_freq

*======================================================================
* SPICE Model generated by Coilcraft
* Coilcraft Part Number : XAL7050-333
* Inductance = 33uH
*======================================================================
* Model Parameters:
*   Valid Frequency Range = 0.1MHz-10MHz
*   Ambient Temperature = 25 degC
*   Inductor Saturation Model
*   Use model for Time Domain simulations
*======================================================================
.subckt XAL7050-333_sat port1 port2 PARAMS: Cpar=18pF Ind=33uH
X1 port1 port2 Model1C PARAMS:
+ R1=80
+ R2=0.075
+ C= {Cpar}
+ K1=0.000001
+ K2=5
+ K3= {Ind}
+ K4=0.000001
+ K5=0.000001
+ L=3.4072E-05
+ Is=9.1256
+ a=0.712
+ L_Z0=0
+ L_EL=0
+ L_F0=0E6
+ PkZ=8211.74727
.ends XAL7050-333_sat

*======================================================================
* SPICE Model generated by Coilcraft
* Coilcraft Part Number : XAL7050-473
* Inductance = 47uH
*======================================================================
* Model Parameters:
*   Valid Frequency Range = 0.1MHz-9MHz
*   Ambient Temperature = 25 degC
*   Inductor Frequency Model
*   Use model for Frequency Domain simulations
*======================================================================
.subckt XAL7050-473_freq port1 port2 PARAMS: Cpar=17.5pF Ind=47uH
X1 port1 port2 Model1A PARAMS:
+ R1=100
+ R2=0.105
+ C= {Cpar}
+ K1=0.000001
+ K2=7
+ K3= {Ind}
+ K4=0.000001
+ K5=0.000001
+ L=4.3971E-05
+ Is=7.1278
+ a=0.7558
+ L_Z0=0
+ L_EL=0
+ L_F0=0E6
+ PkZ=10228.6794
.ends XAL7050-473_freq

*======================================================================
* SPICE Model generated by Coilcraft
* Coilcraft Part Number : XAL7050-473
* Inductance = 47uH
*======================================================================
* Model Parameters:
*   Valid Frequency Range = 0.1MHz-9MHz
*   Ambient Temperature = 25 degC
*   Inductor Saturation Model
*   Use model for Time Domain simulations
*======================================================================
.subckt XAL7050-473_sat port1 port2 PARAMS: Cpar=17.5pF Ind=47uH
X1 port1 port2 Model1C PARAMS:
+ R1=100
+ R2=0.105
+ C= {Cpar}
+ K1=0.000001
+ K2=7
+ K3= {Ind}
+ K4=0.000001
+ K5=0.000001
+ L=4.3971E-05
+ Is=7.1278
+ a=0.7558
+ L_Z0=0
+ L_EL=0
+ L_F0=0E6
+ PkZ=10228.6794
.ends XAL7050-473_sat

*======================================================================
* SPICE Model generated by Coilcraft
* Coilcraft Saturation Inductor Model
*======================================================================
* Model Parameters:
*   Valid Frequency Range Varies by Inductor
*   Ambient Temperature = 25 degC
*   Current Saturable Inductor Model
*======================================================================
.subckt Model1C Lin Lout PARAMS:
+ R1=1
+ R2=1
+ C=1
+ L=1
+ Is=1
+ a=1
+ PkZ=94.2 * {L} *1e6
R2 Lin N001 {R2}
R3 N001 Lout {PkZ}
C1 N001 N002 {C}
R1 N002 Lout {R1}
L1 N001 Lout flux={L*Is}*pwrs(tanh(pwrs((x/{Is}),{a})),{1/a})
.ends Model1C





*======================================================================
* SPICE Model generated by Coilcraft
* Coilcraft Power Inductor Model
*======================================================================
* Model Parameters:
*   Valid Frequency Range Varies by Inductor
*   Ambient Temperature = 25 degC
*   DC Bias Current = 0 A
*   Frequency Dependent Inductor Model
*======================================================================
.subckt Model1A Lin Lout PARAMS:
+ R1=1
+ R2=1
+ C=1
+ K1=1
+ K2=1
+ K3=1
+ K4=1
+ K5=1
R2 N001 Lin {R2}
R1 Lout N002 {R1}
C1 N002 N001 {C}
G_Rvar2 N001 Lout LAPLACE { V(N001, Lout) } {1/K2/(-S*S/4/PI^2)^0.25}
G_Rvar1 N001 N003 LAPLACE { V(N001, N003) } {1/K1/(-S*S/4/PI^2)^0.25}
G_Lvar N003 Lout  LAPLACE { V(N003, Lout) } {1/(S*1e-6*({K3*1e6}-({K4}*LOG({K5}*(sqrt(-S*S)/(2*pi))))))}
*This large resistance to ground has been added to prevent a floating node error
R3 N003 0 100Meg
.ends Model1A


.subckt Coilcraft_Inductor Lin Lout
R1 Lout Lin 100Meg
.ends Coilcraft_Inductor
