*======================================================================
* SPICE Model generated by Coilcraft
* Coilcraft Part Number : XAL8080-681
* Inductance = 680nH
*======================================================================
* Model Parameters:
*   Valid Frequency Range = 0.1MHz-150MHz
*   Ambient Temperature = 25 degC
*   Inductor Frequency Model
*   Use model for Frequency Domain simulations
*======================================================================
.subckt XAL8080-681_freq port1 port2 PARAMS: Cpar=9.5pF Ind=0.68uH
X1 port1 port2 Model1A PARAMS:
+ R1=10.2
+ R2=0.00138
+ C= {Cpar}
+ K1=0.000001
+ K2=0.058
+ K3= {Ind}
+ K4=0.0187
+ K5=0.00008
+ L=6.557E-07
+ Is=89.286
+ a=0.7221
+ L_Z0=0
+ L_EL=0
+ L_F0=0E6
+ PkZ=449.591911
.ends XAL8080-681_freq

*======================================================================
* SPICE Model generated by Coilcraft
* Coilcraft Part Number : XAL8080-681
* Inductance = 680nH
*======================================================================
* Model Parameters:
*   Valid Frequency Range = 0.1MHz-150MHz
*   Ambient Temperature = 25 degC
*   Inductor Saturation Model
*   Use model for Time Domain simulations
*======================================================================
.subckt XAL8080-681_sat port1 port2 PARAMS: Cpar=7.274pF Ind=0.68uH
X1 port1 port2 Model1C PARAMS:
+ R1=10.2
+ R2=0.00138
+ C= {Cpar}
+ K1=0.000001
+ K2=0.058
+ K3= {Ind}
+ K4=0.0187
+ K5=0.00008
+ L=6.557E-07
+ Is=89.286
+ a=0.7221
+ L_Z0=0
+ L_EL=0
+ L_F0=0E6
+ PkZ=449.591911
.ends XAL8080-681_sat

*======================================================================
* SPICE Model generated by Coilcraft
* Coilcraft Part Number : XAL8080-102
* Inductance = 1uH
*======================================================================
* Model Parameters:
*   Valid Frequency Range = 0.1MHz-150MHz
*   Ambient Temperature = 25 degC
*   Inductor Frequency Model
*   Use model for Frequency Domain simulations
*======================================================================
.subckt XAL8080-102_freq port1 port2 PARAMS: Cpar=10pF Ind=1uH
X1 port1 port2 Model1A PARAMS:
+ R1=5
+ R2=0.00211
+ C= {Cpar}
+ K1=0.000001
+ K2=0.108
+ K3= {Ind}
+ K4=0.000001
+ K5=0.000001
+ L=1.073E-06
+ Is=76.6632
+ a=0.7181
+ L_Z0=0
+ L_EL=0
+ L_F0=0E6
+ PkZ=737.88703
.ends XAL8080-102_freq

*======================================================================
* SPICE Model generated by Coilcraft
* Coilcraft Part Number : XAL8080-102
* Inductance = 1uH
*======================================================================
* Model Parameters:
*   Valid Frequency Range = 0.1MHz-150MHz
*   Ambient Temperature = 25 degC
*   Inductor Saturation Model
*   Use model for Time Domain simulations
*======================================================================
.subckt XAL8080-102_sat port1 port2 PARAMS: Cpar=10pF Ind=1uH
X1 port1 port2 Model1C PARAMS:
+ R1=5
+ R2=0.00211
+ C= {Cpar}
+ K1=0.000001
+ K2=0.108
+ K3= {Ind}
+ K4=0.000001
+ K5=0.000001
+ L=1.073E-06
+ Is=76.6632
+ a=0.7181
+ L_Z0=0
+ L_EL=0
+ L_F0=0E6
+ PkZ=737.88703
.ends XAL8080-102_sat

*======================================================================
* SPICE Model generated by Coilcraft
* Coilcraft Part Number : XAL8080-222
* Inductance = 2.2uH
*======================================================================
* Model Parameters:
*   Valid Frequency Range = 0.1MHz-100MHz
*   Ambient Temperature = 25 degC
*   Inductor Frequency Model
*   Use model for Frequency Domain simulations
*======================================================================
.subckt XAL8080-222_freq port1 port2 PARAMS: Cpar=9.7pF Ind=2.2uH
X1 port1 port2 Model1A PARAMS:
+ R1=7.45
+ R2=0.00408
+ C= {Cpar}
+ K1=0.000001
+ K2=0.25
+ K3= {Ind}
+ K4=0.0207
+ K5=0.0000073
+ L=2.2509E-06
+ Is=60.0622
+ a=0.7003
+ L_Z0=0
+ L_EL=0
+ L_F0=0E6
+ PkZ=1414.22434
.ends XAL8080-222_freq

*======================================================================
* SPICE Model generated by Coilcraft
* Coilcraft Part Number : XAL8080-222
* Inductance = 2.2uH
*======================================================================
* Model Parameters:
*   Valid Frequency Range = 0.1MHz-100MHz
*   Ambient Temperature = 25 degC
*   Inductor Saturation Model
*   Use model for Time Domain simulations
*======================================================================
.subckt XAL8080-222_sat port1 port2 PARAMS: Cpar=9.196pF Ind=2.2uH
X1 port1 port2 Model1C PARAMS:
+ R1=7.45
+ R2=0.00408
+ C= {Cpar}
+ K1=0.000001
+ K2=0.25
+ K3= {Ind}
+ K4=0.0207
+ K5=0.0000073
+ L=2.2509E-06
+ Is=60.0622
+ a=0.7003
+ L_Z0=0
+ L_EL=0
+ L_F0=0E6
+ PkZ=1414.22434
.ends XAL8080-222_sat

*======================================================================
* SPICE Model generated by Coilcraft
* Coilcraft Part Number : XAL8080-472
* Inductance = 4.7uH
*======================================================================
* Model Parameters:
*   Valid Frequency Range = 0.1MHz-75MHz
*   Ambient Temperature = 25 degC
*   Inductor Frequency Model
*   Use model for Frequency Domain simulations
*======================================================================
.subckt XAL8080-472_freq port1 port2 PARAMS: Cpar=9.7pF Ind=4.7uH
X1 port1 port2 Model1A PARAMS:
+ R1=9.95
+ R2=0.00889
+ C= {Cpar}
+ K1=0.000001
+ K2=0.583
+ K3= {Ind}
+ K4=0.000001
+ K5=0.000001
+ L=4.8881E-06
+ Is=44.0272
+ a=0.6741
+ L_Z0=0
+ L_EL=0
+ L_F0=0E6
+ PkZ=2674.97117
.ends XAL8080-472_freq

*======================================================================
* SPICE Model generated by Coilcraft
* Coilcraft Part Number : XAL8080-472
* Inductance = 4.7uH
*======================================================================
* Model Parameters:
*   Valid Frequency Range = 0.1MHz-75MHz
*   Ambient Temperature = 25 degC
*   Inductor Saturation Model
*   Use model for Time Domain simulations
*======================================================================
.subckt XAL8080-472_sat port1 port2 PARAMS: Cpar=9.7pF Ind=4.7uH
X1 port1 port2 Model1C PARAMS:
+ R1=9.95
+ R2=0.00889
+ C= {Cpar}
+ K1=0.000001
+ K2=0.583
+ K3= {Ind}
+ K4=0.000001
+ K5=0.000001
+ L=4.8881E-06
+ Is=44.0272
+ a=0.6741
+ L_Z0=0
+ L_EL=0
+ L_F0=0E6
+ PkZ=2674.97117
.ends XAL8080-472_sat

*======================================================================
* SPICE Model generated by Coilcraft
* Coilcraft Part Number : XAL8080-682
* Inductance = 6.8uH
*======================================================================
* Model Parameters:
*   Valid Frequency Range = 0.1MHz-50MHz
*   Ambient Temperature = 25 degC
*   Inductor Frequency Model
*   Use model for Frequency Domain simulations
*======================================================================
.subckt XAL8080-682_freq port1 port2 PARAMS: Cpar=10.5pF Ind=6.8uH
X1 port1 port2 Model1A PARAMS:
+ R1=13.1
+ R2=0.0132
+ C= {Cpar}
+ K1=0.000001
+ K2=0.695
+ K3= {Ind}
+ K4=0.09
+ K5=0.01
+ L=6.704E-06
+ Is=30.1621
+ a=0.7321
+ L_Z0=0
+ L_EL=0
+ L_F0=0E6
+ PkZ=2928.83519
.ends XAL8080-682_freq

*======================================================================
* SPICE Model generated by Coilcraft
* Coilcraft Part Number : XAL8080-682
* Inductance = 6.8uH
*======================================================================
* Model Parameters:
*   Valid Frequency Range = 0.1MHz-50MHz
*   Ambient Temperature = 25 degC
*   Inductor Saturation Model
*   Use model for Time Domain simulations
*======================================================================
.subckt XAL8080-682_sat port1 port2 PARAMS: Cpar=8.812pF Ind=6.8uH
X1 port1 port2 Model1C PARAMS:
+ R1=13.1
+ R2=0.0132
+ C= {Cpar}
+ K1=0.000001
+ K2=0.695
+ K3= {Ind}
+ K4=0.09
+ K5=0.01
+ L=6.704E-06
+ Is=30.1621
+ a=0.7321
+ L_Z0=0
+ L_EL=0
+ L_F0=0E6
+ PkZ=2928.83519
.ends XAL8080-682_sat

*======================================================================
* SPICE Model generated by Coilcraft
* Coilcraft Part Number : XAL8080-103
* Inductance = 10uH
*======================================================================
* Model Parameters:
*   Valid Frequency Range = 0.1MHz-50MHz
*   Ambient Temperature = 25 degC
*   Inductor Frequency Model
*   Use model for Frequency Domain simulations
*======================================================================
.subckt XAL8080-103_freq port1 port2 PARAMS: Cpar=9.7pF Ind=10uH
X1 port1 port2 Model1A PARAMS:
+ R1=11.3
+ R2=0.021
+ C= {Cpar}
+ K1=0.000001
+ K2=1.15
+ K3= {Ind}
+ K4=0.156
+ K5=0.000001
+ L=9.7966E-06
+ Is=26.0484
+ a=0.7283
+ L_Z0=0
+ L_EL=0
+ L_F0=0E6
+ PkZ=4436.79187
.ends XAL8080-103_freq

*======================================================================
* SPICE Model generated by Coilcraft
* Coilcraft Part Number : XAL8080-103
* Inductance = 10uH
*======================================================================
* Model Parameters:
*   Valid Frequency Range = 0.1MHz-50MHz
*   Ambient Temperature = 25 degC
*   Inductor Saturation Model
*   Use model for Time Domain simulations
*======================================================================
.subckt XAL8080-103_sat port1 port2 PARAMS: Cpar=9.279pF Ind=10uH
X1 port1 port2 Model1C PARAMS:
+ R1=11.3
+ R2=0.021
+ C= {Cpar}
+ K1=0.000001
+ K2=1.15
+ K3= {Ind}
+ K4=0.156
+ K5=0.000001
+ L=9.7966E-06
+ Is=26.0484
+ a=0.7283
+ L_Z0=0
+ L_EL=0
+ L_F0=0E6
+ PkZ=4436.79187
.ends XAL8080-103_sat

*======================================================================
* SPICE Model generated by Coilcraft
* Coilcraft Part Number : XAL8080-223
* Inductance = 22uH
*======================================================================
* Model Parameters:
*   Valid Frequency Range = 0.1MHz-30MHz
*   Ambient Temperature = 25 degC
*   Inductor Frequency Model
*   Use model for Frequency Domain simulations
*======================================================================
.subckt XAL8080-223_freq port1 port2 PARAMS: Cpar=15.5pF Ind=22uH
X1 port1 port2 Model1A PARAMS:
+ R1=22.6
+ R2=0.0325
+ C= {Cpar}
+ K1=0.000001
+ K2=2.16
+ K3= {Ind}
+ K4=0.000001
+ K5=0.000001
+ L=2.2764E-05
+ Is=11.6817
+ a=0.7638
+ L_Z0=0
+ L_EL=0
+ L_F0=0E6
+ PkZ=5759.8432
.ends XAL8080-223_freq

*======================================================================
* SPICE Model generated by Coilcraft
* Coilcraft Part Number : XAL8080-223
* Inductance = 22uH
*======================================================================
* Model Parameters:
*   Valid Frequency Range = 0.1MHz-30MHz
*   Ambient Temperature = 25 degC
*   Inductor Saturation Model
*   Use model for Time Domain simulations
*======================================================================
.subckt XAL8080-223_sat port1 port2 PARAMS: Cpar=15.5pF Ind=22uH
X1 port1 port2 Model1C PARAMS:
+ R1=22.6
+ R2=0.0325
+ C= {Cpar}
+ K1=0.000001
+ K2=2.16
+ K3= {Ind}
+ K4=0.000001
+ K5=0.000001
+ L=2.2764E-05
+ Is=11.6817
+ a=0.7638
+ L_Z0=0
+ L_EL=0
+ L_F0=0E6
+ PkZ=5759.8432
.ends XAL8080-223_sat

*======================================================================
* SPICE Model generated by Coilcraft
* Coilcraft Part Number : XAL8080-473
* Inductance = 47uH
*======================================================================
* Model Parameters:
*   Valid Frequency Range = 0.1MHz-15MHz
*   Ambient Temperature = 25 degC
*   Inductor Frequency Model
*   Use model for Frequency Domain simulations
*======================================================================
.subckt XAL8080-473_freq port1 port2 PARAMS: Cpar=17.1pF Ind=47uH
X1 port1 port2 Model1A PARAMS:
+ R1=36.4
+ R2=0.0733
+ C= {Cpar}
+ K1=0.000001
+ K2=4.95
+ K3= {Ind}
+ K4=0.000001
+ K5=0.000001
+ L=4.7514E-05
+ Is=8.153
+ a=0.7645
+ L_Z0=0
+ L_EL=0
+ L_F0=0E6
+ PkZ=10152.2704
.ends XAL8080-473_freq

*======================================================================
* SPICE Model generated by Coilcraft
* Coilcraft Part Number : XAL8080-473
* Inductance = 47uH
*======================================================================
* Model Parameters:
*   Valid Frequency Range = 0.1MHz-15MHz
*   Ambient Temperature = 25 degC
*   Inductor Saturation Model
*   Use model for Time Domain simulations
*======================================================================
.subckt XAL8080-473_sat port1 port2 PARAMS: Cpar=17.1pF Ind=47uH
X1 port1 port2 Model1C PARAMS:
+ R1=36.4
+ R2=0.0733
+ C= {Cpar}
+ K1=0.000001
+ K2=4.95
+ K3= {Ind}
+ K4=0.000001
+ K5=0.000001
+ L=4.7514E-05
+ Is=8.153
+ a=0.7645
+ L_Z0=0
+ L_EL=0
+ L_F0=0E6
+ PkZ=10152.2704
.ends XAL8080-473_sat

*======================================================================
* SPICE Model generated by Coilcraft
* Coilcraft Saturation Inductor Model
*======================================================================
* Model Parameters:
*   Valid Frequency Range Varies by Inductor
*   Ambient Temperature = 25 degC
*   Current Saturable Inductor Model
*======================================================================
.subckt Model1C Lin Lout PARAMS:
+ R1=1
+ R2=1
+ C=1
+ L=1
+ Is=1
+ a=1
+ PkZ=94.2 * {L} *1e6
R2 Lin N001 {R2}
R3 N001 Lout {PkZ}
C1 N001 N002 {C}
R1 N002 Lout {R1}
L1 N001 Lout flux={L*Is}*pwrs(tanh(pwrs((x/{Is}),{a})),{1/a})
.ends Model1C





*======================================================================
* SPICE Model generated by Coilcraft
* Coilcraft Power Inductor Model
*======================================================================
* Model Parameters:
*   Valid Frequency Range Varies by Inductor
*   Ambient Temperature = 25 degC
*   DC Bias Current = 0 A
*   Frequency Dependent Inductor Model
*======================================================================
.subckt Model1A Lin Lout PARAMS:
+ R1=1
+ R2=1
+ C=1
+ K1=1
+ K2=1
+ K3=1
+ K4=1
+ K5=1
R2 N001 Lin {R2}
R1 Lout N002 {R1}
C1 N002 N001 {C}
G_Rvar2 N001 Lout LAPLACE { V(N001, Lout) } {1/K2/(-S*S/4/PI^2)^0.25}
G_Rvar1 N001 N003 LAPLACE { V(N001, N003) } {1/K1/(-S*S/4/PI^2)^0.25}
G_Lvar N003 Lout  LAPLACE { V(N003, Lout) } {1/(S*1e-6*({K3*1e6}-({K4}*LOG({K5}*(sqrt(-S*S)/(2*pi))))))}
*This large resistance to ground has been added to prevent a floating node error
R3 N003 0 100Meg
.ends Model1A


.subckt Coilcraft_Inductor Lin Lout
R1 Lout Lin 100Meg
.ends Coilcraft_Inductor
