*======================================================================
* SPICE Model generated by Coilcraft
* Coilcraft Part Number : XEL3530-231
* Inductance = 230nH
*======================================================================
* Model Parameters:
*   Valid Frequency Range = 0.1MHz-250MHz
*   Ambient Temperature = 25 degC
*   Inductor Frequency Model
*   Use model for Frequency Domain simulations
*======================================================================
.subckt XEL3530-231_freq port1 port2 PARAMS: Cpar=2.5pF Ind=0.23uH
X1 port1 port2 Model1A PARAMS:
+ R1=38.4
+ R2=0.0042
+ C= {Cpar}
+ K1=0.000108
+ K2=0.0476
+ K3= {Ind}
+ K4=0.00182
+ K5=0.00000575
+ L=2.265E-07
+ Is=20.569
+ a=0.8477
+ L_Z0=0
+ L_EL=0
+ L_F0=0E6
+ PkZ=530.984416
.ends XEL3530-231_freq

*======================================================================
* SPICE Model generated by Coilcraft
* Coilcraft Part Number : XEL3530-231
* Inductance = 230nH
*======================================================================
* Model Parameters:
*   Valid Frequency Range = 0.1MHz-250MHz
*   Ambient Temperature = 25 degC
*   Inductor Saturation Model
*   Use model for Time Domain simulations
*======================================================================
.subckt XEL3530-231_sat port1 port2 PARAMS: Cpar=2.36pF Ind=0.23uH
X1 port1 port2 Model1C PARAMS:
+ R1=38.4
+ R2=0.0042
+ C= {Cpar}
+ K1=0.000108
+ K2=0.0476
+ K3= {Ind}
+ K4=0.00182
+ K5=0.00000575
+ L=2.265E-07
+ Is=20.569
+ a=0.8477
+ L_Z0=0
+ L_EL=0
+ L_F0=0E6
+ PkZ=530.984416
.ends XEL3530-231_sat

*======================================================================
* SPICE Model generated by Coilcraft
* Coilcraft Part Number : XEL3530-301
* Inductance = 300nH
*======================================================================
* Model Parameters:
*   Valid Frequency Range = 0.1MHz-250MHz
*   Ambient Temperature = 25 degC
*   Inductor Frequency Model
*   Use model for Frequency Domain simulations
*======================================================================
.subckt XEL3530-301_freq port1 port2 PARAMS: Cpar=2.25pF Ind=0.305uH
X1 port1 port2 Model1A PARAMS:
+ R1=38.4
+ R2=0.0052
+ C= {Cpar}
+ K1=0.000159
+ K2=0.058
+ K3= {Ind}
+ K4=0.00182
+ K5=0.00000575
+ L=3.148E-07
+ Is=17.4911
+ a=0.8481
+ L_Z0=0
+ L_EL=0
+ L_F0=0E6
+ PkZ=649.155448
.ends XEL3530-301_freq

*======================================================================
* SPICE Model generated by Coilcraft
* Coilcraft Part Number : XEL3530-301
* Inductance = 300nH
*======================================================================
* Model Parameters:
*   Valid Frequency Range = 0.1MHz-250MHz
*   Ambient Temperature = 25 degC
*   Inductor Saturation Model
*   Use model for Time Domain simulations
*======================================================================
.subckt XEL3530-301_sat port1 port2 PARAMS: Cpar=2.156pF Ind=0.305uH
X1 port1 port2 Model1C PARAMS:
+ R1=38.4
+ R2=0.0052
+ C= {Cpar}
+ K1=0.000159
+ K2=0.058
+ K3= {Ind}
+ K4=0.00182
+ K5=0.00000575
+ L=3.148E-07
+ Is=17.4911
+ a=0.8481
+ L_Z0=0
+ L_EL=0
+ L_F0=0E6
+ PkZ=649.155448
.ends XEL3530-301_sat

*======================================================================
* SPICE Model generated by Coilcraft
* Coilcraft Part Number : XEL3530-401
* Inductance = 400nH
*======================================================================
* Model Parameters:
*   Valid Frequency Range = 0.1MHz-200MHz
*   Ambient Temperature = 25 degC
*   Inductor Frequency Model
*   Use model for Frequency Domain simulations
*======================================================================
.subckt XEL3530-401_freq port1 port2 PARAMS: Cpar=2.4pF Ind=0.4uH
X1 port1 port2 Model1A PARAMS:
+ R1=38.4
+ R2=0.0061
+ C= {Cpar}
+ K1=0.000198
+ K2=0.0812
+ K3= {Ind}
+ K4=0.00182
+ K5=0.00000575
+ L=4.033E-07
+ Is=15.8055
+ a=0.8492
+ L_Z0=0
+ L_EL=0
+ L_F0=0E6
+ PkZ=826.25917
.ends XEL3530-401_freq

*======================================================================
* SPICE Model generated by Coilcraft
* Coilcraft Part Number : XEL3530-401
* Inductance = 400nH
*======================================================================
* Model Parameters:
*   Valid Frequency Range = 0.1MHz-200MHz
*   Ambient Temperature = 25 degC
*   Inductor Saturation Model
*   Use model for Time Domain simulations
*======================================================================
.subckt XEL3530-401_sat port1 port2 PARAMS: Cpar=2.325pF Ind=0.4uH
X1 port1 port2 Model1C PARAMS:
+ R1=38.4
+ R2=0.0061
+ C= {Cpar}
+ K1=0.000198
+ K2=0.0812
+ K3= {Ind}
+ K4=0.00182
+ K5=0.00000575
+ L=4.033E-07
+ Is=15.8055
+ a=0.8492
+ L_Z0=0
+ L_EL=0
+ L_F0=0E6
+ PkZ=826.25917
.ends XEL3530-401_sat

*======================================================================
* SPICE Model generated by Coilcraft
* Coilcraft Part Number : XEL3530-501
* Inductance = 500nH
*======================================================================
* Model Parameters:
*   Valid Frequency Range = 0.1MHz-200MHz
*   Ambient Temperature = 25 degC
*   Inductor Frequency Model
*   Use model for Frequency Domain simulations
*======================================================================
.subckt XEL3530-501_freq port1 port2 PARAMS: Cpar=2.96pF Ind=0.506uH
X1 port1 port2 Model1A PARAMS:
+ R1=38.4
+ R2=0.0072
+ C= {Cpar}
+ K1=0.00021
+ K2=0.105
+ K3= {Ind}
+ K4=0.00182
+ K5=0.00000575
+ L=5.029E-07
+ Is=15.2621
+ a=0.8459
+ L_Z0=0
+ L_EL=0
+ L_F0=0E6
+ PkZ=932.081387
.ends XEL3530-501_freq

*======================================================================
* SPICE Model generated by Coilcraft
* Coilcraft Part Number : XEL3530-501
* Inductance = 500nH
*======================================================================
* Model Parameters:
*   Valid Frequency Range = 0.1MHz-200MHz
*   Ambient Temperature = 25 degC
*   Inductor Saturation Model
*   Use model for Time Domain simulations
*======================================================================
.subckt XEL3530-501_sat port1 port2 PARAMS: Cpar=2.89pF Ind=0.506uH
X1 port1 port2 Model1C PARAMS:
+ R1=38.4
+ R2=0.0072
+ C= {Cpar}
+ K1=0.00021
+ K2=0.105
+ K3= {Ind}
+ K4=0.00182
+ K5=0.00000575
+ L=5.029E-07
+ Is=15.2621
+ a=0.8459
+ L_Z0=0
+ L_EL=0
+ L_F0=0E6
+ PkZ=932.081387
.ends XEL3530-501_sat

*======================================================================
* SPICE Model generated by Coilcraft
* Coilcraft Part Number : XEL3530-681
* Inductance = 680nH
*======================================================================
* Model Parameters:
*   Valid Frequency Range = 0.1MHz-160MHz
*   Ambient Temperature = 25 degC
*   Inductor Frequency Model
*   Use model for Frequency Domain simulations
*======================================================================
.subckt XEL3530-681_freq port1 port2 PARAMS: Cpar=3.2pF Ind=0.687uH
X1 port1 port2 Model1A PARAMS:
+ R1=38.4
+ R2=0.0103
+ C= {Cpar}
+ K1=0.000299
+ K2=0.164
+ K3= {Ind}
+ K4=0.00182
+ K5=0.00000575
+ L=6.916E-07
+ Is=14.2148
+ a=0.7519
+ L_Z0=0
+ L_EL=0
+ L_F0=0E6
+ PkZ=1279.43425
.ends XEL3530-681_freq

*======================================================================
* SPICE Model generated by Coilcraft
* Coilcraft Part Number : XEL3530-681
* Inductance = 680nH
*======================================================================
* Model Parameters:
*   Valid Frequency Range = 0.1MHz-160MHz
*   Ambient Temperature = 25 degC
*   Inductor Saturation Model
*   Use model for Time Domain simulations
*======================================================================
.subckt XEL3530-681_sat port1 port2 PARAMS: Cpar=3.146pF Ind=0.687uH
X1 port1 port2 Model1C PARAMS:
+ R1=38.4
+ R2=0.0103
+ C= {Cpar}
+ K1=0.000299
+ K2=0.164
+ K3= {Ind}
+ K4=0.00182
+ K5=0.00000575
+ L=6.916E-07
+ Is=14.2148
+ a=0.7519
+ L_Z0=0
+ L_EL=0
+ L_F0=0E6
+ PkZ=1279.43425
.ends XEL3530-681_sat

*======================================================================
* SPICE Model generated by Coilcraft
* Coilcraft Part Number : XEL3530-901
* Inductance = 900nH
*======================================================================
* Model Parameters:
*   Valid Frequency Range = 0.1MHz-130MHz
*   Ambient Temperature = 25 degC
*   Inductor Frequency Model
*   Use model for Frequency Domain simulations
*======================================================================
.subckt XEL3530-901_freq port1 port2 PARAMS: Cpar=3.5pF Ind=0.9uH
X1 port1 port2 Model1A PARAMS:
+ R1=38.4
+ R2=0.0127
+ C= {Cpar}
+ K1=0.000396
+ K2=0.226
+ K3= {Ind}
+ K4=0.00152
+ K5=0.00000575
+ L=9.228E-07
+ Is=11.4478
+ a=0.8419
+ L_Z0=0
+ L_EL=0
+ L_F0=0E6
+ PkZ=1584.90392
.ends XEL3530-901_freq

*======================================================================
* SPICE Model generated by Coilcraft
* Coilcraft Part Number : XEL3530-901
* Inductance = 900nH
*======================================================================
* Model Parameters:
*   Valid Frequency Range = 0.1MHz-130MHz
*   Ambient Temperature = 25 degC
*   Inductor Saturation Model
*   Use model for Time Domain simulations
*======================================================================
.subckt XEL3530-901_sat port1 port2 PARAMS: Cpar=3.463pF Ind=0.9uH
X1 port1 port2 Model1C PARAMS:
+ R1=38.4
+ R2=0.0127
+ C= {Cpar}
+ K1=0.000396
+ K2=0.226
+ K3= {Ind}
+ K4=0.00152
+ K5=0.00000575
+ L=9.228E-07
+ Is=11.4478
+ a=0.8419
+ L_Z0=0
+ L_EL=0
+ L_F0=0E6
+ PkZ=1584.90392
.ends XEL3530-901_sat

*======================================================================
* SPICE Model generated by Coilcraft
* Coilcraft Part Number : XEL3530-122
* Inductance = 1.2uH
*======================================================================
* Model Parameters:
*   Valid Frequency Range = 0.1MHz-120MHz
*   Ambient Temperature = 25 degC
*   Inductor Frequency Model
*   Use model for Frequency Domain simulations
*======================================================================
.subckt XEL3530-122_freq port1 port2 PARAMS: Cpar=3.45pF Ind=1.2uH
X1 port1 port2 Model1A PARAMS:
+ R1=38.4
+ R2=0.0178
+ C= {Cpar}
+ K1=0.0005
+ K2=0.3
+ K3= {Ind}
+ K4=0.00182
+ K5=0.00000575
+ L=1.1682E-06
+ Is=12.1646
+ a=0.713
+ L_Z0=0
+ L_EL=0
+ L_F0=0E6
+ PkZ=2000.46394
.ends XEL3530-122_freq

*======================================================================
* SPICE Model generated by Coilcraft
* Coilcraft Part Number : XEL3530-122
* Inductance = 1.2uH
*======================================================================
* Model Parameters:
*   Valid Frequency Range = 0.1MHz-120MHz
*   Ambient Temperature = 25 degC
*   Inductor Saturation Model
*   Use model for Time Domain simulations
*======================================================================
.subckt XEL3530-122_sat port1 port2 PARAMS: Cpar=3.418pF Ind=1.2uH
X1 port1 port2 Model1C PARAMS:
+ R1=38.4
+ R2=0.0178
+ C= {Cpar}
+ K1=0.0005
+ K2=0.3
+ K3= {Ind}
+ K4=0.00182
+ K5=0.00000575
+ L=1.1682E-06
+ Is=12.1646
+ a=0.713
+ L_Z0=0
+ L_EL=0
+ L_F0=0E6
+ PkZ=2000.46394
.ends XEL3530-122_sat

*======================================================================
* SPICE Model generated by Coilcraft
* Coilcraft Saturation Inductor Model
*======================================================================
* Model Parameters:
*   Valid Frequency Range Varies by Inductor
*   Ambient Temperature = 25 degC
*   Current Saturable Inductor Model
*======================================================================
.subckt Model1C Lin Lout PARAMS:
+ R1=1
+ R2=1
+ C=1
+ L=1
+ Is=1
+ a=1
+ PkZ=94.2 * {L} *1e6
R2 Lin N001 {R2}
R3 N001 Lout {PkZ}
C1 N001 N002 {C}
R1 N002 Lout {R1}
L1 N001 Lout flux={L*Is}*pwrs(tanh(pwrs((x/{Is}),{a})),{1/a})
.ends Model1C





*======================================================================
* SPICE Model generated by Coilcraft
* Coilcraft Power Inductor Model
*======================================================================
* Model Parameters:
*   Valid Frequency Range Varies by Inductor
*   Ambient Temperature = 25 degC
*   DC Bias Current = 0 A
*   Frequency Dependent Inductor Model
*======================================================================
.subckt Model1A Lin Lout PARAMS:
+ R1=1
+ R2=1
+ C=1
+ K1=1
+ K2=1
+ K3=1
+ K4=1
+ K5=1
R2 N001 Lin {R2}
R1 Lout N002 {R1}
C1 N002 N001 {C}
G_Rvar2 N001 Lout LAPLACE { V(N001, Lout) } {1/K2/(-S*S/4/PI^2)^0.25}
G_Rvar1 N001 N003 LAPLACE { V(N001, N003) } {1/K1/(-S*S/4/PI^2)^0.25}
G_Lvar N003 Lout  LAPLACE { V(N003, Lout) } {1/(S*1e-6*({K3*1e6}-({K4}*LOG({K5}*(sqrt(-S*S)/(2*pi))))))}
*This large resistance to ground has been added to prevent a floating node error
R3 N003 0 100Meg
.ends Model1A


.subckt Coilcraft_Inductor Lin Lout
R1 Lout Lin 100Meg
.ends Coilcraft_Inductor
