*======================================================================
* SPICE Model generated by Coilcraft
* Coilcraft Part Number : XEL3515-720
* Inductance = 72nH
*======================================================================
* Model Parameters:
*   Valid Frequency Range = 0.1MHz-600MHz
*   Ambient Temperature = 25 degC
*   Inductor Frequency Model
*   Use model for Frequency Domain simulations
*======================================================================
.subckt XEL3515-720_freq port1 port2 PARAMS: Cpar=1.4pF Ind=0.072uH
X1 port1 port2 Model1A PARAMS:
+ R1=81.5
+ R2=0.00285
+ C= {Cpar}
+ K1=0.00000159
+ K2=0.0207
+ K3= {Ind}
+ K4=0.00028
+ K5=0.0000045
+ L=7.65E-08
+ Is=43.6909
+ a=0.7059
+ L_Z0=0
+ L_EL=0
+ L_F0=0E6
+ PkZ=276.073835
.ends XEL3515-720_freq

*======================================================================
* SPICE Model generated by Coilcraft
* Coilcraft Part Number : XEL3515-720
* Inductance = 72nH
*======================================================================
* Model Parameters:
*   Valid Frequency Range = 0.1MHz-600MHz
*   Ambient Temperature = 25 degC
*   Inductor Saturation Model
*   Use model for Time Domain simulations
*======================================================================
.subckt XEL3515-720_sat port1 port2 PARAMS: Cpar=1.358pF Ind=0.072uH
X1 port1 port2 Model1C PARAMS:
+ R1=81.5
+ R2=0.00285
+ C= {Cpar}
+ K1=0.00000159
+ K2=0.0207
+ K3= {Ind}
+ K4=0.00028
+ K5=0.0000045
+ L=7.65E-08
+ Is=43.6909
+ a=0.7059
+ L_Z0=0
+ L_EL=0
+ L_F0=0E6
+ PkZ=276.073835
.ends XEL3515-720_sat

*======================================================================
* SPICE Model generated by Coilcraft
* Coilcraft Part Number : XEL3515-151
* Inductance = 150nH
*======================================================================
* Model Parameters:
*   Valid Frequency Range = 0.1MHz-350MHz
*   Ambient Temperature = 25 degC
*   Inductor Frequency Model
*   Use model for Frequency Domain simulations
*======================================================================
.subckt XEL3515-151_freq port1 port2 PARAMS: Cpar=1.7pF Ind=0.15uH
X1 port1 port2 Model1A PARAMS:
+ R1=57
+ R2=0.0048
+ C= {Cpar}
+ K1=0.0000187
+ K2=0.0341
+ K3= {Ind}
+ K4=0.000481
+ K5=0.000205
+ L=1.518E-07
+ Is=30.4246
+ a=0.6967
+ L_Z0=0
+ L_EL=0
+ L_F0=0E6
+ PkZ=436.769475
.ends XEL3515-151_freq

*======================================================================
* SPICE Model generated by Coilcraft
* Coilcraft Part Number : XEL3515-151
* Inductance = 150nH
*======================================================================
* Model Parameters:
*   Valid Frequency Range = 0.1MHz-350MHz
*   Ambient Temperature = 25 degC
*   Inductor Saturation Model
*   Use model for Time Domain simulations
*======================================================================
.subckt XEL3515-151_sat port1 port2 PARAMS: Cpar=1.64pF Ind=0.15uH
X1 port1 port2 Model1C PARAMS:
+ R1=57
+ R2=0.0048
+ C= {Cpar}
+ K1=0.0000187
+ K2=0.0341
+ K3= {Ind}
+ K4=0.000481
+ K5=0.000205
+ L=1.518E-07
+ Is=30.4246
+ a=0.6967
+ L_Z0=0
+ L_EL=0
+ L_F0=0E6
+ PkZ=436.769475
.ends XEL3515-151_sat

*======================================================================
* SPICE Model generated by Coilcraft
* Coilcraft Part Number : XEL3515-221
* Inductance = 220nH
*======================================================================
* Model Parameters:
*   Valid Frequency Range = 0.1MHz-250MHz
*   Ambient Temperature = 25 degC
*   Inductor Frequency Model
*   Use model for Frequency Domain simulations
*======================================================================
.subckt XEL3515-221_freq port1 port2 PARAMS: Cpar=2.2pF Ind=0.22uH
X1 port1 port2 Model1A PARAMS:
+ R1=33.8
+ R2=0.0078
+ C= {Cpar}
+ K1=0.0000825
+ K2=0.054
+ K3= {Ind}
+ K4=0.00125
+ K5=0.00000575
+ L=2.496E-07
+ Is=22.8154
+ a=0.6943
+ L_Z0=0
+ L_EL=0
+ L_F0=0E6
+ PkZ=635.526962
.ends XEL3515-221_freq

*======================================================================
* SPICE Model generated by Coilcraft
* Coilcraft Part Number : XEL3515-221
* Inductance = 220nH
*======================================================================
* Model Parameters:
*   Valid Frequency Range = 0.1MHz-250MHz
*   Ambient Temperature = 25 degC
*   Inductor Saturation Model
*   Use model for Time Domain simulations
*======================================================================
.subckt XEL3515-221_sat port1 port2 PARAMS: Cpar=2.11pF Ind=0.22uH
X1 port1 port2 Model1C PARAMS:
+ R1=33.8
+ R2=0.0078
+ C= {Cpar}
+ K1=0.0000825
+ K2=0.054
+ K3= {Ind}
+ K4=0.00125
+ K5=0.00000575
+ L=2.496E-07
+ Is=22.8154
+ a=0.6943
+ L_Z0=0
+ L_EL=0
+ L_F0=0E6
+ PkZ=635.526962
.ends XEL3515-221_sat

*======================================================================
* SPICE Model generated by Coilcraft
* Coilcraft Part Number : XEL3515-351
* Inductance = 350nH
*======================================================================
* Model Parameters:
*   Valid Frequency Range = 0.1MHz-160MHz
*   Ambient Temperature = 25 degC
*   Inductor Frequency Model
*   Use model for Frequency Domain simulations
*======================================================================
.subckt XEL3515-351_freq port1 port2 PARAMS: Cpar=3pF Ind=0.34uH
X1 port1 port2 Model1A PARAMS:
+ R1=69
+ R2=0.0118
+ C= {Cpar}
+ K1=0.00000575
+ K2=0.112
+ K3= {Ind}
+ K4=0.00125
+ K5=0.00001
+ L=3.701E-07
+ Is=17.8854
+ a=0.7095
+ L_Z0=0
+ L_EL=0
+ L_F0=0E6
+ PkZ=761.711849
.ends XEL3515-351_freq

*======================================================================
* SPICE Model generated by Coilcraft
* Coilcraft Part Number : XEL3515-351
* Inductance = 350nH
*======================================================================
* Model Parameters:
*   Valid Frequency Range = 0.1MHz-160MHz
*   Ambient Temperature = 25 degC
*   Inductor Saturation Model
*   Use model for Time Domain simulations
*======================================================================
.subckt XEL3515-351_sat port1 port2 PARAMS: Cpar=2.919pF Ind=0.34uH
X1 port1 port2 Model1C PARAMS:
+ R1=69
+ R2=0.0118
+ C= {Cpar}
+ K1=0.00000575
+ K2=0.112
+ K3= {Ind}
+ K4=0.00125
+ K5=0.00001
+ L=3.701E-07
+ Is=17.8854
+ a=0.7095
+ L_Z0=0
+ L_EL=0
+ L_F0=0E6
+ PkZ=761.711849
.ends XEL3515-351_sat

*======================================================================
* SPICE Model generated by Coilcraft
* Coilcraft Part Number : XEL3515-561
* Inductance = 560nH
*======================================================================
* Model Parameters:
*   Valid Frequency Range = 0.1MHz-140MHz
*   Ambient Temperature = 25 degC
*   Inductor Frequency Model
*   Use model for Frequency Domain simulations
*======================================================================
.subckt XEL3515-561_freq port1 port2 PARAMS: Cpar=2.5pF Ind=0.54uH
X1 port1 port2 Model1A PARAMS:
+ R1=55.8
+ R2=0.022
+ C= {Cpar}
+ K1=0.000168
+ K2=0.138
+ K3= {Ind}
+ K4=0.002
+ K5=0.0000074
+ L=5.729E-07
+ Is=14.2379
+ a=0.7109
+ L_Z0=0
+ L_EL=0
+ L_F0=0E6
+ PkZ=1128.20375
.ends XEL3515-561_freq

*======================================================================
* SPICE Model generated by Coilcraft
* Coilcraft Part Number : XEL3515-561
* Inductance = 560nH
*======================================================================
* Model Parameters:
*   Valid Frequency Range = 0.1MHz-140MHz
*   Ambient Temperature = 25 degC
*   Inductor Saturation Model
*   Use model for Time Domain simulations
*======================================================================
.subckt XEL3515-561_sat port1 port2 PARAMS: Cpar=2.436pF Ind=0.54uH
X1 port1 port2 Model1C PARAMS:
+ R1=55.8
+ R2=0.022
+ C= {Cpar}
+ K1=0.000168
+ K2=0.138
+ K3= {Ind}
+ K4=0.002
+ K5=0.0000074
+ L=5.729E-07
+ Is=14.2379
+ a=0.7109
+ L_Z0=0
+ L_EL=0
+ L_F0=0E6
+ PkZ=1128.20375
.ends XEL3515-561_sat

*======================================================================
* SPICE Model generated by Coilcraft
* Coilcraft Saturation Inductor Model
*======================================================================
* Model Parameters:
*   Valid Frequency Range Varies by Inductor
*   Ambient Temperature = 25 degC
*   Current Saturable Inductor Model
*======================================================================
.subckt Model1C Lin Lout PARAMS:
+ R1=1
+ R2=1
+ C=1
+ L=1
+ Is=1
+ a=1
+ PkZ=94.2 * {L} *1e6
R2 Lin N001 {R2}
R3 N001 Lout {PkZ}
C1 N001 N002 {C}
R1 N002 Lout {R1}
L1 N001 Lout flux={L*Is}*pwrs(tanh(pwrs((x/{Is}),{a})),{1/a})
.ends Model1C





*======================================================================
* SPICE Model generated by Coilcraft
* Coilcraft Power Inductor Model
*======================================================================
* Model Parameters:
*   Valid Frequency Range Varies by Inductor
*   Ambient Temperature = 25 degC
*   DC Bias Current = 0 A
*   Frequency Dependent Inductor Model
*======================================================================
.subckt Model1A Lin Lout PARAMS:
+ R1=1
+ R2=1
+ C=1
+ K1=1
+ K2=1
+ K3=1
+ K4=1
+ K5=1
R2 N001 Lin {R2}
R1 Lout N002 {R1}
C1 N002 N001 {C}
G_Rvar2 N001 Lout LAPLACE { V(N001, Lout) } {1/K2/(-S*S/4/PI^2)^0.25}
G_Rvar1 N001 N003 LAPLACE { V(N001, N003) } {1/K1/(-S*S/4/PI^2)^0.25}
G_Lvar N003 Lout  LAPLACE { V(N003, Lout) } {1/(S*1e-6*({K3*1e6}-({K4}*LOG({K5}*(sqrt(-S*S)/(2*pi))))))}
*This large resistance to ground has been added to prevent a floating node error
R3 N003 0 100Meg
.ends Model1A


.subckt Coilcraft_Inductor Lin Lout
R1 Lout Lin 100Meg
.ends Coilcraft_Inductor
