*======================================================================
* SPICE Model generated by Coilcraft
* Coilcraft Part Number : XEL4030-101
* Inductance = 100nH
*======================================================================
* Model Parameters:
*   Valid Frequency Range = 0.1MHz-350MHz
*   Ambient Temperature = 25 degC
*   Inductor Frequency Model
*   Use model for Frequency Domain simulations
*======================================================================
.subckt XEL4030-101_freq port1 port2 PARAMS: Cpar=3.37pF Ind=0.1uH
X1 port1 port2 Model1A PARAMS:
+ R1=12
+ R2=0.0015
+ C= {Cpar}
+ K1=0.000001
+ K2=0.019
+ K3= {Ind}
+ K4=0.000651
+ K5=0.000001
+ L=1.087E-07
+ Is=73.1132
+ a=0.6085
+ L_Z0=0
+ L_EL=0
+ L_F0=0E6
+ PkZ=280.305114
.ends XEL4030-101_freq

*======================================================================
* SPICE Model generated by Coilcraft
* Coilcraft Part Number : XEL4030-101
* Inductance = 100nH
*======================================================================
* Model Parameters:
*   Valid Frequency Range = 0.1MHz-350MHz
*   Ambient Temperature = 25 degC
*   Inductor Saturation Model
*   Use model for Time Domain simulations
*======================================================================
.subckt XEL4030-101_sat port1 port2 PARAMS: Cpar=3.247pF Ind=0.1uH
X1 port1 port2 Model1C PARAMS:
+ R1=12
+ R2=0.0015
+ C= {Cpar}
+ K1=0.000001
+ K2=0.019
+ K3= {Ind}
+ K4=0.000651
+ K5=0.000001
+ L=1.087E-07
+ Is=73.1132
+ a=0.6085
+ L_Z0=0
+ L_EL=0
+ L_F0=0E6
+ PkZ=280.305114
.ends XEL4030-101_sat

*======================================================================
* SPICE Model generated by Coilcraft
* Coilcraft Part Number : XEL4030-201
* Inductance = 200nH
*======================================================================
* Model Parameters:
*   Valid Frequency Range = 0.1MHz-250MHz
*   Ambient Temperature = 25 degC
*   Inductor Frequency Model
*   Use model for Frequency Domain simulations
*======================================================================
.subckt XEL4030-201_freq port1 port2 PARAMS: Cpar=4.5pF Ind=0.2uH
X1 port1 port2 Model1A PARAMS:
+ R1=6
+ R2=0.00215
+ C= {Cpar}
+ K1=0.000001
+ K2=0.036
+ K3= {Ind}
+ K4=0.000462
+ K5=0.01
+ L=1.977E-07
+ Is=43.6244
+ a=0.7822
+ L_Z0=0
+ L_EL=0
+ L_F0=0E6
+ PkZ=441.221516
.ends XEL4030-201_freq

*======================================================================
* SPICE Model generated by Coilcraft
* Coilcraft Part Number : XEL4030-201
* Inductance = 200nH
*======================================================================
* Model Parameters:
*   Valid Frequency Range = 0.1MHz-250MHz
*   Ambient Temperature = 25 degC
*   Inductor Saturation Model
*   Use model for Time Domain simulations
*======================================================================
.subckt XEL4030-201_sat port1 port2 PARAMS: Cpar=4.351pF Ind=0.2uH
X1 port1 port2 Model1C PARAMS:
+ R1=6
+ R2=0.00215
+ C= {Cpar}
+ K1=0.000001
+ K2=0.036
+ K3= {Ind}
+ K4=0.000462
+ K5=0.01
+ L=1.977E-07
+ Is=43.6244
+ a=0.7822
+ L_Z0=0
+ L_EL=0
+ L_F0=0E6
+ PkZ=441.221516
.ends XEL4030-201_sat

*======================================================================
* SPICE Model generated by Coilcraft
* Coilcraft Part Number : XEL4030-301
* Inductance = 300nH
*======================================================================
* Model Parameters:
*   Valid Frequency Range = 0.1MHz-250MHz
*   Ambient Temperature = 25 degC
*   Inductor Frequency Model
*   Use model for Frequency Domain simulations
*======================================================================
.subckt XEL4030-301_freq port1 port2 PARAMS: Cpar=4.92pF Ind=0.3uH
X1 port1 port2 Model1A PARAMS:
+ R1=7
+ R2=0.0028
+ C= {Cpar}
+ K1=0.000001
+ K2=0.058
+ K3= {Ind}
+ K4=0.000001
+ K5=0.000001
+ L=3.136E-07
+ Is=34.3634
+ a=0.8618
+ L_Z0=0
+ L_EL=0
+ L_F0=0E6
+ PkZ=616.802818
.ends XEL4030-301_freq

*======================================================================
* SPICE Model generated by Coilcraft
* Coilcraft Part Number : XEL4030-301
* Inductance = 300nH
*======================================================================
* Model Parameters:
*   Valid Frequency Range = 0.1MHz-250MHz
*   Ambient Temperature = 25 degC
*   Inductor Saturation Model
*   Use model for Time Domain simulations
*======================================================================
.subckt XEL4030-301_sat port1 port2 PARAMS: Cpar=4.92pF Ind=0.3uH
X1 port1 port2 Model1C PARAMS:
+ R1=7
+ R2=0.0028
+ C= {Cpar}
+ K1=0.000001
+ K2=0.058
+ K3= {Ind}
+ K4=0.000001
+ K5=0.000001
+ L=3.136E-07
+ Is=34.3634
+ a=0.8618
+ L_Z0=0
+ L_EL=0
+ L_F0=0E6
+ PkZ=616.802818
.ends XEL4030-301_sat

*======================================================================
* SPICE Model generated by Coilcraft
* Coilcraft Part Number : XEL4030-471
* Inductance = 470nH
*======================================================================
* Model Parameters:
*   Valid Frequency Range = 0.1MHz-200MHz
*   Ambient Temperature = 25 degC
*   Inductor Frequency Model
*   Use model for Frequency Domain simulations
*======================================================================
.subckt XEL4030-471_freq port1 port2 PARAMS: Cpar=6.18pF Ind=0.47uH
X1 port1 port2 Model1A PARAMS:
+ R1=9
+ R2=0.0041
+ C= {Cpar}
+ K1=0.000001
+ K2=0.099
+ K3= {Ind}
+ K4=0.000001
+ K5=0.000001
+ L=4.81E-07
+ Is=29.9067
+ a=0.809
+ L_Z0=0
+ L_EL=0
+ L_F0=0E6
+ PkZ=859.397541
.ends XEL4030-471_freq

*======================================================================
* SPICE Model generated by Coilcraft
* Coilcraft Part Number : XEL4030-471
* Inductance = 470nH
*======================================================================
* Model Parameters:
*   Valid Frequency Range = 0.1MHz-200MHz
*   Ambient Temperature = 25 degC
*   Inductor Saturation Model
*   Use model for Time Domain simulations
*======================================================================
.subckt XEL4030-471_sat port1 port2 PARAMS: Cpar=6.18pF Ind=0.47uH
X1 port1 port2 Model1C PARAMS:
+ R1=9
+ R2=0.0041
+ C= {Cpar}
+ K1=0.000001
+ K2=0.099
+ K3= {Ind}
+ K4=0.000001
+ K5=0.000001
+ L=4.81E-07
+ Is=29.9067
+ a=0.809
+ L_Z0=0
+ L_EL=0
+ L_F0=0E6
+ PkZ=859.397541
.ends XEL4030-471_sat

*======================================================================
* SPICE Model generated by Coilcraft
* Coilcraft Part Number : XEL4030-641
* Inductance = 640nH
*======================================================================
* Model Parameters:
*   Valid Frequency Range = 0.1MHz-200MHz
*   Ambient Temperature = 25 degC
*   Inductor Frequency Model
*   Use model for Frequency Domain simulations
*======================================================================
.subckt XEL4030-641_freq port1 port2 PARAMS: Cpar=5.64pF Ind=0.64uH
X1 port1 port2 Model1A PARAMS:
+ R1=7
+ R2=0.0053
+ C= {Cpar}
+ K1=0.000001
+ K2=0.14
+ K3= {Ind}
+ K4=0.000001
+ K5=0.000001
+ L=6.394E-07
+ Is=26.9793
+ a=0.7896
+ L_Z0=0
+ L_EL=0
+ L_F0=0E6
+ PkZ=1187.43025
.ends XEL4030-641_freq

*======================================================================
* SPICE Model generated by Coilcraft
* Coilcraft Part Number : XEL4030-641
* Inductance = 640nH
*======================================================================
* Model Parameters:
*   Valid Frequency Range = 0.1MHz-200MHz
*   Ambient Temperature = 25 degC
*   Inductor Saturation Model
*   Use model for Time Domain simulations
*======================================================================
.subckt XEL4030-641_sat port1 port2 PARAMS: Cpar=5.64pF Ind=0.64uH
X1 port1 port2 Model1C PARAMS:
+ R1=7
+ R2=0.0053
+ C= {Cpar}
+ K1=0.000001
+ K2=0.14
+ K3= {Ind}
+ K4=0.000001
+ K5=0.000001
+ L=6.394E-07
+ Is=26.9793
+ a=0.7896
+ L_Z0=0
+ L_EL=0
+ L_F0=0E6
+ PkZ=1187.43025
.ends XEL4030-641_sat

*======================================================================
* SPICE Model generated by Coilcraft
* Coilcraft Part Number : XEL4030-901
* Inductance = 900nH
*======================================================================
* Model Parameters:
*   Valid Frequency Range = 0.1MHz-200MHz
*   Ambient Temperature = 25 degC
*   Inductor Frequency Model
*   Use model for Frequency Domain simulations
*======================================================================
.subckt XEL4030-901_freq port1 port2 PARAMS: Cpar=6.36pF Ind=0.9uH
X1 port1 port2 Model1A PARAMS:
+ R1=8
+ R2=0.008
+ C= {Cpar}
+ K1=0.000001
+ K2=0.19
+ K3= {Ind}
+ K4=0.000001
+ K5=0.000001
+ L=9.224E-07
+ Is=21.3879
+ a=0.8038
+ L_Z0=0
+ L_EL=0
+ L_F0=0E6
+ PkZ=1424.78277
.ends XEL4030-901_freq

*======================================================================
* SPICE Model generated by Coilcraft
* Coilcraft Part Number : XEL4030-901
* Inductance = 900nH
*======================================================================
* Model Parameters:
*   Valid Frequency Range = 0.1MHz-200MHz
*   Ambient Temperature = 25 degC
*   Inductor Saturation Model
*   Use model for Time Domain simulations
*======================================================================
.subckt XEL4030-901_sat port1 port2 PARAMS: Cpar=6.36pF Ind=0.9uH
X1 port1 port2 Model1C PARAMS:
+ R1=8
+ R2=0.008
+ C= {Cpar}
+ K1=0.000001
+ K2=0.19
+ K3= {Ind}
+ K4=0.000001
+ K5=0.000001
+ L=9.224E-07
+ Is=21.3879
+ a=0.8038
+ L_Z0=0
+ L_EL=0
+ L_F0=0E6
+ PkZ=1424.78277
.ends XEL4030-901_sat

*======================================================================
* SPICE Model generated by Coilcraft
* Coilcraft Part Number : XEL4030-102
* Inductance = 1uH
*======================================================================
* Model Parameters:
*   Valid Frequency Range = 0.1MHz-150MHz
*   Ambient Temperature = 25 degC
*   Inductor Frequency Model
*   Use model for Frequency Domain simulations
*======================================================================
.subckt XEL4030-102_freq port1 port2 PARAMS: Cpar=6.81pF Ind=1uH
X1 port1 port2 Model1A PARAMS:
+ R1=12
+ R2=0.00889
+ C= {Cpar}
+ K1=0.000001
+ K2=0.23
+ K3= {Ind}
+ K4=0.000001
+ K5=0.000001
+ L=1.0647E-06
+ Is=18.1026
+ a=0.7758
+ L_Z0=0
+ L_EL=0
+ L_F0=0E6
+ PkZ=1566.34284
.ends XEL4030-102_freq

*======================================================================
* SPICE Model generated by Coilcraft
* Coilcraft Part Number : XEL4030-102
* Inductance = 1uH
*======================================================================
* Model Parameters:
*   Valid Frequency Range = 0.1MHz-150MHz
*   Ambient Temperature = 25 degC
*   Inductor Saturation Model
*   Use model for Time Domain simulations
*======================================================================
.subckt XEL4030-102_sat port1 port2 PARAMS: Cpar=6.81pF Ind=1uH
X1 port1 port2 Model1C PARAMS:
+ R1=12
+ R2=0.00889
+ C= {Cpar}
+ K1=0.000001
+ K2=0.23
+ K3= {Ind}
+ K4=0.000001
+ K5=0.000001
+ L=1.0647E-06
+ Is=18.1026
+ a=0.7758
+ L_Z0=0
+ L_EL=0
+ L_F0=0E6
+ PkZ=1566.34284
.ends XEL4030-102_sat

*======================================================================
* SPICE Model generated by Coilcraft
* Coilcraft Part Number : XEL4030-122
* Inductance = 1.2uH
*======================================================================
* Model Parameters:
*   Valid Frequency Range = 0.1MHz-100MHz
*   Ambient Temperature = 25 degC
*   Inductor Frequency Model
*   Use model for Frequency Domain simulations
*======================================================================
.subckt XEL4030-122_freq port1 port2 PARAMS: Cpar=6.51pF Ind=1.2uH
X1 port1 port2 Model1A PARAMS:
+ R1=14
+ R2=0.0104
+ C= {Cpar}
+ K1=0.000001
+ K2=0.315
+ K3= {Ind}
+ K4=0.000001
+ K5=0.000001
+ L=1.1963E-06
+ Is=18.5409
+ a=0.8083
+ L_Z0=0
+ L_EL=0
+ L_F0=0E6
+ PkZ=2013.64741
.ends XEL4030-122_freq

*======================================================================
* SPICE Model generated by Coilcraft
* Coilcraft Part Number : XEL4030-122
* Inductance = 1.2uH
*======================================================================
* Model Parameters:
*   Valid Frequency Range = 0.1MHz-100MHz
*   Ambient Temperature = 25 degC
*   Inductor Saturation Model
*   Use model for Time Domain simulations
*======================================================================
.subckt XEL4030-122_sat port1 port2 PARAMS: Cpar=6.51pF Ind=1.2uH
X1 port1 port2 Model1C PARAMS:
+ R1=14
+ R2=0.0104
+ C= {Cpar}
+ K1=0.000001
+ K2=0.315
+ K3= {Ind}
+ K4=0.000001
+ K5=0.000001
+ L=1.1963E-06
+ Is=18.5409
+ a=0.8083
+ L_Z0=0
+ L_EL=0
+ L_F0=0E6
+ PkZ=2013.64741
.ends XEL4030-122_sat

*======================================================================
* SPICE Model generated by Coilcraft
* Coilcraft Part Number : XEL4030-152
* Inductance = 1.5uH
*======================================================================
* Model Parameters:
*   Valid Frequency Range = 0.1MHz-100MHz
*   Ambient Temperature = 25 degC
*   Inductor Frequency Model
*   Use model for Frequency Domain simulations
*======================================================================
.subckt XEL4030-152_freq port1 port2 PARAMS: Cpar=6.9pF Ind=1.5uH
X1 port1 port2 Model1A PARAMS:
+ R1=14
+ R2=0.0151
+ C= {Cpar}
+ K1=0.000001
+ K2=0.412
+ K3= {Ind}
+ K4=0.000001
+ K5=0.000001
+ L=1.5125E-06
+ Is=14.1699
+ a=0.79
+ L_Z0=0
+ L_EL=0
+ L_F0=0E6
+ PkZ=2442.225
.ends XEL4030-152_freq

*======================================================================
* SPICE Model generated by Coilcraft
* Coilcraft Part Number : XEL4030-152
* Inductance = 1.5uH
*======================================================================
* Model Parameters:
*   Valid Frequency Range = 0.1MHz-100MHz
*   Ambient Temperature = 25 degC
*   Inductor Saturation Model
*   Use model for Time Domain simulations
*======================================================================
.subckt XEL4030-152_sat port1 port2 PARAMS: Cpar=6.9pF Ind=1.5uH
X1 port1 port2 Model1C PARAMS:
+ R1=14
+ R2=0.0151
+ C= {Cpar}
+ K1=0.000001
+ K2=0.412
+ K3= {Ind}
+ K4=0.000001
+ K5=0.000001
+ L=1.5125E-06
+ Is=14.1699
+ a=0.79
+ L_Z0=0
+ L_EL=0
+ L_F0=0E6
+ PkZ=2442.225
.ends XEL4030-152_sat

*======================================================================
* SPICE Model generated by Coilcraft
* Coilcraft Part Number : XEL4030-222
* Inductance = 2.2uH
*======================================================================
* Model Parameters:
*   Valid Frequency Range = 0.1MHz-75MHz
*   Ambient Temperature = 25 degC
*   Inductor Frequency Model
*   Use model for Frequency Domain simulations
*======================================================================
.subckt XEL4030-222_freq port1 port2 PARAMS: Cpar=6.58pF Ind=2.2uH
X1 port1 port2 Model1A PARAMS:
+ R1=19
+ R2=0.0201
+ C= {Cpar}
+ K1=0.000001
+ K2=0.702
+ K3= {Ind}
+ K4=0.000001
+ K5=0.000001
+ L=2.4705E-06
+ Is=12.0027
+ a=0.784
+ L_Z0=0
+ L_EL=0
+ L_F0=0E6
+ PkZ=3609.5925
.ends XEL4030-222_freq

*======================================================================
* SPICE Model generated by Coilcraft
* Coilcraft Part Number : XEL4030-222
* Inductance = 2.2uH
*======================================================================
* Model Parameters:
*   Valid Frequency Range = 0.1MHz-75MHz
*   Ambient Temperature = 25 degC
*   Inductor Saturation Model
*   Use model for Time Domain simulations
*======================================================================
.subckt XEL4030-222_sat port1 port2 PARAMS: Cpar=6.58pF Ind=2.2uH
X1 port1 port2 Model1C PARAMS:
+ R1=19
+ R2=0.0201
+ C= {Cpar}
+ K1=0.000001
+ K2=0.702
+ K3= {Ind}
+ K4=0.000001
+ K5=0.000001
+ L=2.4705E-06
+ Is=12.0027
+ a=0.784
+ L_Z0=0
+ L_EL=0
+ L_F0=0E6
+ PkZ=3609.5925
.ends XEL4030-222_sat

*======================================================================
* SPICE Model generated by Coilcraft
* Coilcraft Part Number : XEL4030-332
* Inductance = 3.3uH
*======================================================================
* Model Parameters:
*   Valid Frequency Range = 0.1MHz-75MHz
*   Ambient Temperature = 25 degC
*   Inductor Frequency Model
*   Use model for Frequency Domain simulations
*======================================================================
.subckt XEL4030-332_freq port1 port2 PARAMS: Cpar=6.85pF Ind=3.3uH
X1 port1 port2 Model1A PARAMS:
+ R1=9
+ R2=0.0261
+ C= {Cpar}
+ K1=0.000001
+ K2=0.932
+ K3= {Ind}
+ K4=0.000001
+ K5=0.000001
+ L=3.2451E-06
+ Is=12.7516
+ a=0.7254
+ L_Z0=0
+ L_EL=0
+ L_F0=0E6
+ PkZ=4898.62316
.ends XEL4030-332_freq

*======================================================================
* SPICE Model generated by Coilcraft
* Coilcraft Part Number : XEL4030-332
* Inductance = 3.3uH
*======================================================================
* Model Parameters:
*   Valid Frequency Range = 0.1MHz-75MHz
*   Ambient Temperature = 25 degC
*   Inductor Saturation Model
*   Use model for Time Domain simulations
*======================================================================
.subckt XEL4030-332_sat port1 port2 PARAMS: Cpar=6.85pF Ind=3.3uH
X1 port1 port2 Model1C PARAMS:
+ R1=9
+ R2=0.0261
+ C= {Cpar}
+ K1=0.000001
+ K2=0.932
+ K3= {Ind}
+ K4=0.000001
+ K5=0.000001
+ L=3.2451E-06
+ Is=12.7516
+ a=0.7254
+ L_Z0=0
+ L_EL=0
+ L_F0=0E6
+ PkZ=4898.62316
.ends XEL4030-332_sat

*======================================================================
* SPICE Model generated by Coilcraft
* Coilcraft Part Number : XEL4030-472
* Inductance = 4.7uH
*======================================================================
* Model Parameters:
*   Valid Frequency Range = 0.1MHz-75MHz
*   Ambient Temperature = 25 degC
*   Inductor Frequency Model
*   Use model for Frequency Domain simulations
*======================================================================
.subckt XEL4030-472_freq port1 port2 PARAMS: Cpar=6.25pF Ind=4.7uH
X1 port1 port2 Model1A PARAMS:
+ R1=28
+ R2=0.04
+ C= {Cpar}
+ K1=0.000001
+ K2=1.35
+ K3= {Ind}
+ K4=0.000001
+ K5=0.000001
+ L=4.5734E-06
+ Is=10.9005
+ a=0.7105
+ L_Z0=0
+ L_EL=0
+ L_F0=0E6
+ PkZ=5750.43848
.ends XEL4030-472_freq

*======================================================================
* SPICE Model generated by Coilcraft
* Coilcraft Part Number : XEL4030-472
* Inductance = 4.7uH
*======================================================================
* Model Parameters:
*   Valid Frequency Range = 0.1MHz-75MHz
*   Ambient Temperature = 25 degC
*   Inductor Saturation Model
*   Use model for Time Domain simulations
*======================================================================
.subckt XEL4030-472_sat port1 port2 PARAMS: Cpar=6.25pF Ind=4.7uH
X1 port1 port2 Model1C PARAMS:
+ R1=28
+ R2=0.04
+ C= {Cpar}
+ K1=0.000001
+ K2=1.35
+ K3= {Ind}
+ K4=0.000001
+ K5=0.000001
+ L=4.5734E-06
+ Is=10.9005
+ a=0.7105
+ L_Z0=0
+ L_EL=0
+ L_F0=0E6
+ PkZ=5750.43848
.ends XEL4030-472_sat

*======================================================================
* SPICE Model generated by Coilcraft
* Coilcraft Part Number : XEL4030-682
* Inductance = 6.8uH
*======================================================================
* Model Parameters:
*   Valid Frequency Range = 0.1MHz-50MHz
*   Ambient Temperature = 25 degC
*   Inductor Frequency Model
*   Use model for Frequency Domain simulations
*======================================================================
.subckt XEL4030-682_freq port1 port2 PARAMS: Cpar=7.33pF Ind=6.8uH
X1 port1 port2 Model1A PARAMS:
+ R1=25
+ R2=0.0674
+ C= {Cpar}
+ K1=0.000001
+ K2=1.75
+ K3= {Ind}
+ K4=0.000001
+ K5=0.000001
+ L=7.3122E-06
+ Is=8.3524
+ a=0.727
+ L_Z0=0
+ L_EL=0
+ L_F0=0E6
+ PkZ=6789.4103
.ends XEL4030-682_freq

*======================================================================
* SPICE Model generated by Coilcraft
* Coilcraft Part Number : XEL4030-682
* Inductance = 6.8uH
*======================================================================
* Model Parameters:
*   Valid Frequency Range = 0.1MHz-50MHz
*   Ambient Temperature = 25 degC
*   Inductor Saturation Model
*   Use model for Time Domain simulations
*======================================================================
.subckt XEL4030-682_sat port1 port2 PARAMS: Cpar=7.33pF Ind=6.8uH
X1 port1 port2 Model1C PARAMS:
+ R1=25
+ R2=0.0674
+ C= {Cpar}
+ K1=0.000001
+ K2=1.75
+ K3= {Ind}
+ K4=0.000001
+ K5=0.000001
+ L=7.3122E-06
+ Is=8.3524
+ a=0.727
+ L_Z0=0
+ L_EL=0
+ L_F0=0E6
+ PkZ=6789.4103
.ends XEL4030-682_sat

*======================================================================
* SPICE Model generated by Coilcraft
* Coilcraft Saturation Inductor Model
*======================================================================
* Model Parameters:
*   Valid Frequency Range Varies by Inductor
*   Ambient Temperature = 25 degC
*   Current Saturable Inductor Model
*======================================================================
.subckt Model1C Lin Lout PARAMS:
+ R1=1
+ R2=1
+ C=1
+ L=1
+ Is=1
+ a=1
+ PkZ=94.2 * {L} *1e6
R2 Lin N001 {R2}
R3 N001 Lout {PkZ}
C1 N001 N002 {C}
R1 N002 Lout {R1}
L1 N001 Lout flux={L*Is}*pwrs(tanh(pwrs((x/{Is}),{a})),{1/a})
.ends Model1C





*======================================================================
* SPICE Model generated by Coilcraft
* Coilcraft Power Inductor Model
*======================================================================
* Model Parameters:
*   Valid Frequency Range Varies by Inductor
*   Ambient Temperature = 25 degC
*   DC Bias Current = 0 A
*   Frequency Dependent Inductor Model
*======================================================================
.subckt Model1A Lin Lout PARAMS:
+ R1=1
+ R2=1
+ C=1
+ K1=1
+ K2=1
+ K3=1
+ K4=1
+ K5=1
R2 N001 Lin {R2}
R1 Lout N002 {R1}
C1 N002 N001 {C}
G_Rvar2 N001 Lout LAPLACE { V(N001, Lout) } {1/K2/(-S*S/4/PI^2)^0.25}
G_Rvar1 N001 N003 LAPLACE { V(N001, N003) } {1/K1/(-S*S/4/PI^2)^0.25}
G_Lvar N003 Lout  LAPLACE { V(N003, Lout) } {1/(S*1e-6*({K3*1e6}-({K4}*LOG({K5}*(sqrt(-S*S)/(2*pi))))))}
*This large resistance to ground has been added to prevent a floating node error
R3 N003 0 100Meg
.ends Model1A


.subckt Coilcraft_Inductor Lin Lout
R1 Lout Lin 100Meg
.ends Coilcraft_Inductor
