*======================================================================
* SPICE Model generated by Coilcraft
* Coilcraft Part Number : XEL4012-920
* Inductance = 92nH
*======================================================================
* Model Parameters:
*   Valid Frequency Range = 0.1MHz-350MHz
*   Ambient Temperature = 25 degC
*   Inductor Frequency Model
*   Use model for Frequency Domain simulations
*======================================================================
.subckt XEL4012-920_freq port1 port2 PARAMS: Cpar=3.83pF Ind=0.092uH
X1 port1 port2 Model1A PARAMS:
+ R1=9.8
+ R2=0.0052
+ C= {Cpar}
+ K1=0.000001
+ K2=0.0188
+ K3= {Ind}
+ K4=0.00142
+ K5=0.000001
+ L=9.92E-08
+ Is=71.1477
+ a=0.5253
+ L_Z0=0
+ L_EL=0
+ L_F0=0E6
+ PkZ=276.134725
.ends XEL4012-920_freq

*======================================================================
* SPICE Model generated by Coilcraft
* Coilcraft Part Number : XEL4012-920
* Inductance = 92nH
*======================================================================
* Model Parameters:
*   Valid Frequency Range = 0.1MHz-350MHz
*   Ambient Temperature = 25 degC
*   Inductor Saturation Model
*   Use model for Time Domain simulations
*======================================================================
.subckt XEL4012-920_sat port1 port2 PARAMS: Cpar=3.499pF Ind=0.092uH
X1 port1 port2 Model1C PARAMS:
+ R1=9.8
+ R2=0.0052
+ C= {Cpar}
+ K1=0.000001
+ K2=0.0188
+ K3= {Ind}
+ K4=0.00142
+ K5=0.000001
+ L=9.92E-08
+ Is=71.1477
+ a=0.5253
+ L_Z0=0
+ L_EL=0
+ L_F0=0E6
+ PkZ=276.134725
.ends XEL4012-920_sat

*======================================================================
* SPICE Model generated by Coilcraft
* Coilcraft Part Number : XEL4012-221
* Inductance = 220nH
*======================================================================
* Model Parameters:
*   Valid Frequency Range = 0.1MHz-250MHz
*   Ambient Temperature = 25 degC
*   Inductor Frequency Model
*   Use model for Frequency Domain simulations
*======================================================================
.subckt XEL4012-221_freq port1 port2 PARAMS: Cpar=4.92pF Ind=0.22uH
X1 port1 port2 Model1A PARAMS:
+ R1=7.42
+ R2=0.0097
+ C= {Cpar}
+ K1=0.000001
+ K2=0.0406
+ K3= {Ind}
+ K4=0.000001
+ K5=0.000001
+ L=2.181E-07
+ Is=44.6865
+ a=0.5755
+ L_Z0=0
+ L_EL=0
+ L_F0=0E6
+ PkZ=463.525939
.ends XEL4012-221_freq

*======================================================================
* SPICE Model generated by Coilcraft
* Coilcraft Part Number : XEL4012-221
* Inductance = 220nH
*======================================================================
* Model Parameters:
*   Valid Frequency Range = 0.1MHz-250MHz
*   Ambient Temperature = 25 degC
*   Inductor Saturation Model
*   Use model for Time Domain simulations
*======================================================================
.subckt XEL4012-221_sat port1 port2 PARAMS: Cpar=4.92pF Ind=0.22uH
X1 port1 port2 Model1C PARAMS:
+ R1=7.42
+ R2=0.0097
+ C= {Cpar}
+ K1=0.000001
+ K2=0.0406
+ K3= {Ind}
+ K4=0.000001
+ K5=0.000001
+ L=2.181E-07
+ Is=44.6865
+ a=0.5755
+ L_Z0=0
+ L_EL=0
+ L_F0=0E6
+ PkZ=463.525939
.ends XEL4012-221_sat

*======================================================================
* SPICE Model generated by Coilcraft
* Coilcraft Part Number : XEL4014-221
* Inductance = 220nH
*======================================================================
* Model Parameters:
*   Valid Frequency Range = 0.1MHz-250MHz
*   Ambient Temperature = 25 degC
*   Inductor Frequency Model
*   Use model for Frequency Domain simulations
*======================================================================
.subckt XEL4014-221_freq port1 port2 PARAMS: Cpar=4.64pF Ind=0.22uH
X1 port1 port2 Model1A PARAMS:
+ R1=7.42
+ R2=0.0075
+ C= {Cpar}
+ K1=0.000001
+ K2=0.0424
+ K3= {Ind}
+ K4=0.000001
+ K5=0.000001
+ L=2.471E-07
+ Is=39.8579
+ a=0.6529
+ L_Z0=0
+ L_EL=0
+ L_F0=0E6
+ PkZ=491.234682
.ends XEL4014-221_freq

*======================================================================
* SPICE Model generated by Coilcraft
* Coilcraft Part Number : XEL4014-221
* Inductance = 220nH
*======================================================================
* Model Parameters:
*   Valid Frequency Range = 0.1MHz-250MHz
*   Ambient Temperature = 25 degC
*   Inductor Saturation Model
*   Use model for Time Domain simulations
*======================================================================
.subckt XEL4014-221_sat port1 port2 PARAMS: Cpar=4.64pF Ind=0.22uH
X1 port1 port2 Model1C PARAMS:
+ R1=7.42
+ R2=0.0075
+ C= {Cpar}
+ K1=0.000001
+ K2=0.0424
+ K3= {Ind}
+ K4=0.000001
+ K5=0.000001
+ L=2.471E-07
+ Is=39.8579
+ a=0.6529
+ L_Z0=0
+ L_EL=0
+ L_F0=0E6
+ PkZ=491.234682
.ends XEL4014-221_sat

*======================================================================
* SPICE Model generated by Coilcraft
* Coilcraft Part Number : XEL4014-331
* Inductance = 330nH
*======================================================================
* Model Parameters:
*   Valid Frequency Range = 0.1MHz-200MHz
*   Ambient Temperature = 25 degC
*   Inductor Frequency Model
*   Use model for Frequency Domain simulations
*======================================================================
.subckt XEL4014-331_freq port1 port2 PARAMS: Cpar=4.94pF Ind=0.33uH
X1 port1 port2 Model1A PARAMS:
+ R1=10.2
+ R2=0.0099
+ C= {Cpar}
+ K1=0.000001
+ K2=0.0718
+ K3= {Ind}
+ K4=0.000001
+ K5=0.000001
+ L=3.412E-07
+ Is=37.7689
+ a=0.6123
+ L_Z0=0
+ L_EL=0
+ L_F0=0E6
+ PkZ=714.25043
.ends XEL4014-331_freq

*======================================================================
* SPICE Model generated by Coilcraft
* Coilcraft Part Number : XEL4014-331
* Inductance = 330nH
*======================================================================
* Model Parameters:
*   Valid Frequency Range = 0.1MHz-200MHz
*   Ambient Temperature = 25 degC
*   Inductor Saturation Model
*   Use model for Time Domain simulations
*======================================================================
.subckt XEL4014-331_sat port1 port2 PARAMS: Cpar=4.94pF Ind=0.33uH
X1 port1 port2 Model1C PARAMS:
+ R1=10.2
+ R2=0.0099
+ C= {Cpar}
+ K1=0.000001
+ K2=0.0718
+ K3= {Ind}
+ K4=0.000001
+ K5=0.000001
+ L=3.412E-07
+ Is=37.7689
+ a=0.6123
+ L_Z0=0
+ L_EL=0
+ L_F0=0E6
+ PkZ=714.25043
.ends XEL4014-331_sat

*======================================================================
* SPICE Model generated by Coilcraft
* Coilcraft Part Number : XEL4014-561
* Inductance = 560nH
*======================================================================
* Model Parameters:
*   Valid Frequency Range = 0.1MHz-200MHz
*   Ambient Temperature = 25 degC
*   Inductor Frequency Model
*   Use model for Frequency Domain simulations
*======================================================================
.subckt XEL4014-561_freq port1 port2 PARAMS: Cpar=5.5pF Ind=0.56uH
X1 port1 port2 Model1A PARAMS:
+ R1=12.9
+ R2=0.0165
+ C= {Cpar}
+ K1=0.000001
+ K2=0.12
+ K3= {Ind}
+ K4=0.000001
+ K5=0.000001
+ L=5.654E-07
+ Is=29.1269
+ a=0.6253
+ L_Z0=0
+ L_EL=0
+ L_F0=0E6
+ PkZ=998.346561
.ends XEL4014-561_freq

*======================================================================
* SPICE Model generated by Coilcraft
* Coilcraft Part Number : XEL4014-561
* Inductance = 560nH
*======================================================================
* Model Parameters:
*   Valid Frequency Range = 0.1MHz-200MHz
*   Ambient Temperature = 25 degC
*   Inductor Saturation Model
*   Use model for Time Domain simulations
*======================================================================
.subckt XEL4014-561_sat port1 port2 PARAMS: Cpar=5.5pF Ind=0.56uH
X1 port1 port2 Model1C PARAMS:
+ R1=12.9
+ R2=0.0165
+ C= {Cpar}
+ K1=0.000001
+ K2=0.12
+ K3= {Ind}
+ K4=0.000001
+ K5=0.000001
+ L=5.654E-07
+ Is=29.1269
+ a=0.6253
+ L_Z0=0
+ L_EL=0
+ L_F0=0E6
+ PkZ=998.346561
.ends XEL4014-561_sat

*======================================================================
* SPICE Model generated by Coilcraft
* Coilcraft Part Number : XEL4014-781
* Inductance = 780nH
*======================================================================
* Model Parameters:
*   Valid Frequency Range = 0.1MHz-200MHz
*   Ambient Temperature = 25 degC
*   Inductor Frequency Model
*   Use model for Frequency Domain simulations
*======================================================================
.subckt XEL4014-781_freq port1 port2 PARAMS: Cpar=5.66pF Ind=0.78uH
X1 port1 port2 Model1A PARAMS:
+ R1=22.7
+ R2=0.0203
+ C= {Cpar}
+ K1=0.000001
+ K2=0.185
+ K3= {Ind}
+ K4=0.000001
+ K5=0.000001
+ L=7.519E-07
+ Is=26.6829
+ a=0.5919
+ L_Z0=0
+ L_EL=0
+ L_F0=0E6
+ PkZ=1273.39962
.ends XEL4014-781_freq

*======================================================================
* SPICE Model generated by Coilcraft
* Coilcraft Part Number : XEL4014-781
* Inductance = 780nH
*======================================================================
* Model Parameters:
*   Valid Frequency Range = 0.1MHz-200MHz
*   Ambient Temperature = 25 degC
*   Inductor Saturation Model
*   Use model for Time Domain simulations
*======================================================================
.subckt XEL4014-781_sat port1 port2 PARAMS: Cpar=5.66pF Ind=0.78uH
X1 port1 port2 Model1C PARAMS:
+ R1=22.7
+ R2=0.0203
+ C= {Cpar}
+ K1=0.000001
+ K2=0.185
+ K3= {Ind}
+ K4=0.000001
+ K5=0.000001
+ L=7.519E-07
+ Is=26.6829
+ a=0.5919
+ L_Z0=0
+ L_EL=0
+ L_F0=0E6
+ PkZ=1273.39962
.ends XEL4014-781_sat

*======================================================================
* SPICE Model generated by Coilcraft
* Coilcraft Saturation Inductor Model
*======================================================================
* Model Parameters:
*   Valid Frequency Range Varies by Inductor
*   Ambient Temperature = 25 degC
*   Current Saturable Inductor Model
*======================================================================
.subckt Model1C Lin Lout PARAMS:
+ R1=1
+ R2=1
+ C=1
+ L=1
+ Is=1
+ a=1
+ PkZ=94.2 * {L} *1e6
R2 Lin N001 {R2}
R3 N001 Lout {PkZ}
C1 N001 N002 {C}
R1 N002 Lout {R1}
L1 N001 Lout flux={L*Is}*pwrs(tanh(pwrs((x/{Is}),{a})),{1/a})
.ends Model1C





*======================================================================
* SPICE Model generated by Coilcraft
* Coilcraft Power Inductor Model
*======================================================================
* Model Parameters:
*   Valid Frequency Range Varies by Inductor
*   Ambient Temperature = 25 degC
*   DC Bias Current = 0 A
*   Frequency Dependent Inductor Model
*======================================================================
.subckt Model1A Lin Lout PARAMS:
+ R1=1
+ R2=1
+ C=1
+ K1=1
+ K2=1
+ K3=1
+ K4=1
+ K5=1
R2 N001 Lin {R2}
R1 Lout N002 {R1}
C1 N002 N001 {C}
G_Rvar2 N001 Lout LAPLACE { V(N001, Lout) } {1/K2/(-S*S/4/PI^2)^0.25}
G_Rvar1 N001 N003 LAPLACE { V(N001, N003) } {1/K1/(-S*S/4/PI^2)^0.25}
G_Lvar N003 Lout  LAPLACE { V(N003, Lout) } {1/(S*1e-6*({K3*1e6}-({K4}*LOG({K5}*(sqrt(-S*S)/(2*pi))))))}
*This large resistance to ground has been added to prevent a floating node error
R3 N003 0 100Meg
.ends Model1A


.subckt Coilcraft_Inductor Lin Lout
R1 Lout Lin 100Meg
.ends Coilcraft_Inductor
