*======================================================================
* SPICE Model generated by Coilcraft
* Coilcraft Part Number : XEL5050-141
* Inductance = 140nH
*======================================================================
* Model Parameters:
*   Valid Frequency Range = 0.1MHz-300MHz
*   Ambient Temperature = 25 degC
*   Inductor Frequency Model
*   Use model for Frequency Domain simulations
*======================================================================
.subckt XEL5050-141_freq port1 port2 PARAMS: Cpar=5.7pF Ind=0.14uH
X1 port1 port2 Model1A PARAMS:
+ R1=33.7
+ R2=0.00148
+ C= {Cpar}
+ K1=0.000001
+ K2=0.046
+ K3= {Ind}
+ K4=0.00058
+ K5=0.01
+ L=1.414E-07
+ Is=92.8531
+ a=0.701
+ L_Z0=0
+ L_EL=0
+ L_F0=0E6
+ PkZ=332.113534
.ends XEL5050-141_freq

*======================================================================
* SPICE Model generated by Coilcraft
* Coilcraft Part Number : XEL5050-141
* Inductance = 140nH
*======================================================================
* Model Parameters:
*   Valid Frequency Range = 0.1MHz-300MHz
*   Ambient Temperature = 25 degC
*   Inductor Saturation Model
*   Use model for Time Domain simulations
*======================================================================
.subckt XEL5050-141_sat port1 port2 PARAMS: Cpar=5.36pF Ind=0.14uH
X1 port1 port2 Model1C PARAMS:
+ R1=33.7
+ R2=0.00148
+ C= {Cpar}
+ K1=0.000001
+ K2=0.046
+ K3= {Ind}
+ K4=0.00058
+ K5=0.01
+ L=1.414E-07
+ Is=92.8531
+ a=0.701
+ L_Z0=0
+ L_EL=0
+ L_F0=0E6
+ PkZ=332.113534
.ends XEL5050-141_sat

*======================================================================
* SPICE Model generated by Coilcraft
* Coilcraft Part Number : XEL5050-281
* Inductance = 280nH
*======================================================================
* Model Parameters:
*   Valid Frequency Range = 0.1MHz-250MHz
*   Ambient Temperature = 25 degC
*   Inductor Frequency Model
*   Use model for Frequency Domain simulations
*======================================================================
.subckt XEL5050-281_freq port1 port2 PARAMS: Cpar=6.3pF Ind=0.28uH
X1 port1 port2 Model1A PARAMS:
+ R1=27.9
+ R2=0.0022
+ C= {Cpar}
+ K1=0.000001
+ K2=0.0808
+ K3= {Ind}
+ K4=0.00058
+ K5=0.01
+ L=2.822E-07
+ Is=64.1023
+ a=0.7306
+ L_Z0=0
+ L_EL=0
+ L_F0=0E6
+ PkZ=568.290609
.ends XEL5050-281_freq

*======================================================================
* SPICE Model generated by Coilcraft
* Coilcraft Part Number : XEL5050-281
* Inductance = 280nH
*======================================================================
* Model Parameters:
*   Valid Frequency Range = 0.1MHz-250MHz
*   Ambient Temperature = 25 degC
*   Inductor Saturation Model
*   Use model for Time Domain simulations
*======================================================================
.subckt XEL5050-281_sat port1 port2 PARAMS: Cpar=6.117pF Ind=0.28uH
X1 port1 port2 Model1C PARAMS:
+ R1=27.9
+ R2=0.0022
+ C= {Cpar}
+ K1=0.000001
+ K2=0.0808
+ K3= {Ind}
+ K4=0.00058
+ K5=0.01
+ L=2.822E-07
+ Is=64.1023
+ a=0.7306
+ L_Z0=0
+ L_EL=0
+ L_F0=0E6
+ PkZ=568.290609
.ends XEL5050-281_sat

*======================================================================
* SPICE Model generated by Coilcraft
* Coilcraft Part Number : XEL5050-471
* Inductance = 470nH
*======================================================================
* Model Parameters:
*   Valid Frequency Range = 0.1MHz-150MHz
*   Ambient Temperature = 25 degC
*   Inductor Frequency Model
*   Use model for Frequency Domain simulations
*======================================================================
.subckt XEL5050-471_freq port1 port2 PARAMS: Cpar=9.2pF Ind=0.47uH
X1 port1 port2 Model1A PARAMS:
+ R1=7.3
+ R2=0.003
+ C= {Cpar}
+ K1=0.000001
+ K2=0.126
+ K3= {Ind}
+ K4=0.00058
+ K5=0.01
+ L=4.825E-07
+ Is=46.2478
+ a=0.7531
+ L_Z0=0
+ L_EL=0
+ L_F0=0E6
+ PkZ=953.552069
.ends XEL5050-471_freq

*======================================================================
* SPICE Model generated by Coilcraft
* Coilcraft Part Number : XEL5050-471
* Inductance = 470nH
*======================================================================
* Model Parameters:
*   Valid Frequency Range = 0.1MHz-150MHz
*   Ambient Temperature = 25 degC
*   Inductor Saturation Model
*   Use model for Time Domain simulations
*======================================================================
.subckt XEL5050-471_sat port1 port2 PARAMS: Cpar=9.046pF Ind=0.47uH
X1 port1 port2 Model1C PARAMS:
+ R1=7.3
+ R2=0.003
+ C= {Cpar}
+ K1=0.000001
+ K2=0.126
+ K3= {Ind}
+ K4=0.00058
+ K5=0.01
+ L=4.825E-07
+ Is=46.2478
+ a=0.7531
+ L_Z0=0
+ L_EL=0
+ L_F0=0E6
+ PkZ=953.552069
.ends XEL5050-471_sat

*======================================================================
* SPICE Model generated by Coilcraft
* Coilcraft Part Number : XEL5050-681
* Inductance = 680nH
*======================================================================
* Model Parameters:
*   Valid Frequency Range = 0.1MHz-140MHz
*   Ambient Temperature = 25 degC
*   Inductor Frequency Model
*   Use model for Frequency Domain simulations
*======================================================================
.subckt XEL5050-681_freq port1 port2 PARAMS: Cpar=6.7pF Ind=0.68uH
X1 port1 port2 Model1A PARAMS:
+ R1=6.7
+ R2=0.00379
+ C= {Cpar}
+ K1=0.000001
+ K2=0.187
+ K3= {Ind}
+ K4=0.00058
+ K5=0.01
+ L=6.862E-07
+ Is=39.3
+ a=0.7584
+ L_Z0=0
+ L_EL=0
+ L_F0=0E6
+ PkZ=1461.26624
.ends XEL5050-681_freq

*======================================================================
* SPICE Model generated by Coilcraft
* Coilcraft Part Number : XEL5050-681
* Inductance = 680nH
*======================================================================
* Model Parameters:
*   Valid Frequency Range = 0.1MHz-140MHz
*   Ambient Temperature = 25 degC
*   Inductor Saturation Model
*   Use model for Time Domain simulations
*======================================================================
.subckt XEL5050-681_sat port1 port2 PARAMS: Cpar=6.623pF Ind=0.68uH
X1 port1 port2 Model1C PARAMS:
+ R1=6.7
+ R2=0.00379
+ C= {Cpar}
+ K1=0.000001
+ K2=0.187
+ K3= {Ind}
+ K4=0.00058
+ K5=0.01
+ L=6.862E-07
+ Is=39.3
+ a=0.7584
+ L_Z0=0
+ L_EL=0
+ L_F0=0E6
+ PkZ=1461.26624
.ends XEL5050-681_sat

*======================================================================
* SPICE Model generated by Coilcraft
* Coilcraft Part Number : XEL5050-901
* Inductance = 900nH
*======================================================================
* Model Parameters:
*   Valid Frequency Range = 0.1MHz-130MHz
*   Ambient Temperature = 25 degC
*   Inductor Frequency Model
*   Use model for Frequency Domain simulations
*======================================================================
.subckt XEL5050-901_freq port1 port2 PARAMS: Cpar=8.3pF Ind=0.9uH
X1 port1 port2 Model1A PARAMS:
+ R1=6.7
+ R2=0.00467
+ C= {Cpar}
+ K1=0.000001
+ K2=0.253
+ K3= {Ind}
+ K4=0.00058
+ K5=0.01
+ L=8.984E-07
+ Is=37.2928
+ a=0.756
+ L_Z0=0
+ L_EL=0
+ L_F0=0E6
+ PkZ=1726.46075
.ends XEL5050-901_freq

*======================================================================
* SPICE Model generated by Coilcraft
* Coilcraft Part Number : XEL5050-901
* Inductance = 900nH
*======================================================================
* Model Parameters:
*   Valid Frequency Range = 0.1MHz-130MHz
*   Ambient Temperature = 25 degC
*   Inductor Saturation Model
*   Use model for Time Domain simulations
*======================================================================
.subckt XEL5050-901_sat port1 port2 PARAMS: Cpar=8.229pF Ind=0.9uH
X1 port1 port2 Model1C PARAMS:
+ R1=6.7
+ R2=0.00467
+ C= {Cpar}
+ K1=0.000001
+ K2=0.253
+ K3= {Ind}
+ K4=0.00058
+ K5=0.01
+ L=8.984E-07
+ Is=37.2928
+ a=0.756
+ L_Z0=0
+ L_EL=0
+ L_F0=0E6
+ PkZ=1726.46075
.ends XEL5050-901_sat

*======================================================================
* SPICE Model generated by Coilcraft
* Coilcraft Part Number : XEL5050-122
* Inductance = 1.2uH
*======================================================================
* Model Parameters:
*   Valid Frequency Range = 0.1MHz-100MHz
*   Ambient Temperature = 25 degC
*   Inductor Frequency Model
*   Use model for Frequency Domain simulations
*======================================================================
.subckt XEL5050-122_freq port1 port2 PARAMS: Cpar=8.3pF Ind=1.2uH
X1 port1 port2 Model1A PARAMS:
+ R1=7.3
+ R2=0.0054
+ C= {Cpar}
+ K1=0.000001
+ K2=0.337
+ K3= {Ind}
+ K4=0.00058
+ K5=0.01
+ L=1.1376E-06
+ Is=31.8335
+ a=0.7862
+ L_Z0=0
+ L_EL=0
+ L_F0=0E6
+ PkZ=2136.59509
.ends XEL5050-122_freq

*======================================================================
* SPICE Model generated by Coilcraft
* Coilcraft Part Number : XEL5050-122
* Inductance = 1.2uH
*======================================================================
* Model Parameters:
*   Valid Frequency Range = 0.1MHz-100MHz
*   Ambient Temperature = 25 degC
*   Inductor Saturation Model
*   Use model for Time Domain simulations
*======================================================================
.subckt XEL5050-122_sat port1 port2 PARAMS: Cpar=8.247pF Ind=1.2uH
X1 port1 port2 Model1C PARAMS:
+ R1=7.3
+ R2=0.0054
+ C= {Cpar}
+ K1=0.000001
+ K2=0.337
+ K3= {Ind}
+ K4=0.00058
+ K5=0.01
+ L=1.1376E-06
+ Is=31.8335
+ a=0.7862
+ L_Z0=0
+ L_EL=0
+ L_F0=0E6
+ PkZ=2136.59509
.ends XEL5050-122_sat

*======================================================================
* SPICE Model generated by Coilcraft
* Coilcraft Part Number : XEL5050-182
* Inductance = 1.8uH
*======================================================================
* Model Parameters:
*   Valid Frequency Range = 0.1MHz-90MHz
*   Ambient Temperature = 25 degC
*   Inductor Frequency Model
*   Use model for Frequency Domain simulations
*======================================================================
.subckt XEL5050-182_freq port1 port2 PARAMS: Cpar=8.7pF Ind=1.8uH
X1 port1 port2 Model1A PARAMS:
+ R1=3.65
+ R2=0.00778
+ C= {Cpar}
+ K1=0.000001
+ K2=0.557
+ K3= {Ind}
+ K4=0.00058
+ K5=0.01
+ L=1.7012E-06
+ Is=27.1141
+ a=0.7818
+ L_Z0=0
+ L_EL=0
+ L_F0=0E6
+ PkZ=3327.28996
.ends XEL5050-182_freq

*======================================================================
* SPICE Model generated by Coilcraft
* Coilcraft Part Number : XEL5050-182
* Inductance = 1.8uH
*======================================================================
* Model Parameters:
*   Valid Frequency Range = 0.1MHz-90MHz
*   Ambient Temperature = 25 degC
*   Inductor Saturation Model
*   Use model for Time Domain simulations
*======================================================================
.subckt XEL5050-182_sat port1 port2 PARAMS: Cpar=8.664pF Ind=1.8uH
X1 port1 port2 Model1C PARAMS:
+ R1=3.65
+ R2=0.00778
+ C= {Cpar}
+ K1=0.000001
+ K2=0.557
+ K3= {Ind}
+ K4=0.00058
+ K5=0.01
+ L=1.7012E-06
+ Is=27.1141
+ a=0.7818
+ L_Z0=0
+ L_EL=0
+ L_F0=0E6
+ PkZ=3327.28996
.ends XEL5050-182_sat

*======================================================================
* SPICE Model generated by Coilcraft
* Coilcraft Part Number : XEL5050-222
* Inductance = 2.2uH
*======================================================================
* Model Parameters:
*   Valid Frequency Range = 0.1MHz-80MHz
*   Ambient Temperature = 25 degC
*   Inductor Frequency Model
*   Use model for Frequency Domain simulations
*======================================================================
.subckt XEL5050-222_freq port1 port2 PARAMS: Cpar=8.3pF Ind=2.2uH
X1 port1 port2 Model1A PARAMS:
+ R1=3.15
+ R2=0.01036
+ C= {Cpar}
+ K1=0.000001
+ K2=0.701
+ K3= {Ind}
+ K4=0.00058
+ K5=0.01
+ L=2.266E-06
+ Is=20.3614
+ a=0.7751
+ L_Z0=0
+ L_EL=0
+ L_F0=0E6
+ PkZ=4073.38325
.ends XEL5050-222_freq

*======================================================================
* SPICE Model generated by Coilcraft
* Coilcraft Part Number : XEL5050-222
* Inductance = 2.2uH
*======================================================================
* Model Parameters:
*   Valid Frequency Range = 0.1MHz-80MHz
*   Ambient Temperature = 25 degC
*   Inductor Saturation Model
*   Use model for Time Domain simulations
*======================================================================
.subckt XEL5050-222_sat port1 port2 PARAMS: Cpar=8.272pF Ind=2.2uH
X1 port1 port2 Model1C PARAMS:
+ R1=3.15
+ R2=0.01036
+ C= {Cpar}
+ K1=0.000001
+ K2=0.701
+ K3= {Ind}
+ K4=0.00058
+ K5=0.01
+ L=2.266E-06
+ Is=20.3614
+ a=0.7751
+ L_Z0=0
+ L_EL=0
+ L_F0=0E6
+ PkZ=4073.38325
.ends XEL5050-222_sat

*======================================================================
* SPICE Model generated by Coilcraft
* Coilcraft Part Number : XEL5050-332
* Inductance = 3.3uH
*======================================================================
* Model Parameters:
*   Valid Frequency Range = 0.1MHz-70MHz
*   Ambient Temperature = 25 degC
*   Inductor Frequency Model
*   Use model for Frequency Domain simulations
*======================================================================
.subckt XEL5050-332_freq port1 port2 PARAMS: Cpar=9.1pF Ind=3.3uH
X1 port1 port2 Model1A PARAMS:
+ R1=2.55
+ R2=0.0133
+ C= {Cpar}
+ K1=0.000001
+ K2=1.08
+ K3= {Ind}
+ K4=0.00058
+ K5=0.01
+ L=3.274E-06
+ Is=18.1869
+ a=0.7769
+ L_Z0=0
+ L_EL=0
+ L_F0=0E6
+ PkZ=5593.48842
.ends XEL5050-332_freq

*======================================================================
* SPICE Model generated by Coilcraft
* Coilcraft Part Number : XEL5050-332
* Inductance = 3.3uH
*======================================================================
* Model Parameters:
*   Valid Frequency Range = 0.1MHz-70MHz
*   Ambient Temperature = 25 degC
*   Inductor Saturation Model
*   Use model for Time Domain simulations
*======================================================================
.subckt XEL5050-332_sat port1 port2 PARAMS: Cpar=9.08pF Ind=3.3uH
X1 port1 port2 Model1C PARAMS:
+ R1=2.55
+ R2=0.0133
+ C= {Cpar}
+ K1=0.000001
+ K2=1.08
+ K3= {Ind}
+ K4=0.00058
+ K5=0.01
+ L=3.274E-06
+ Is=18.1869
+ a=0.7769
+ L_Z0=0
+ L_EL=0
+ L_F0=0E6
+ PkZ=5593.48842
.ends XEL5050-332_sat

*======================================================================
* SPICE Model generated by Coilcraft
* Coilcraft Part Number : XEL5050-472
* Inductance = 4.7uH
*======================================================================
* Model Parameters:
*   Valid Frequency Range = 0.1MHz-60MHz
*   Ambient Temperature = 25 degC
*   Inductor Frequency Model
*   Use model for Frequency Domain simulations
*======================================================================
.subckt XEL5050-472_freq port1 port2 PARAMS: Cpar=8.1pF Ind=4.7uH
X1 port1 port2 Model1A PARAMS:
+ R1=2.55
+ R2=0.0196
+ C= {Cpar}
+ K1=0.000001
+ K2=1.61
+ K3= {Ind}
+ K4=0.00058
+ K5=0.01
+ L=4.7627E-06
+ Is=16.0584
+ a=0.7637
+ L_Z0=0
+ L_EL=0
+ L_F0=0E6
+ PkZ=7895.26964
.ends XEL5050-472_freq

*======================================================================
* SPICE Model generated by Coilcraft
* Coilcraft Part Number : XEL5050-472
* Inductance = 4.7uH
*======================================================================
* Model Parameters:
*   Valid Frequency Range = 0.1MHz-60MHz
*   Ambient Temperature = 25 degC
*   Inductor Saturation Model
*   Use model for Time Domain simulations
*======================================================================
.subckt XEL5050-472_sat port1 port2 PARAMS: Cpar=8.088pF Ind=4.7uH
X1 port1 port2 Model1C PARAMS:
+ R1=2.55
+ R2=0.0196
+ C= {Cpar}
+ K1=0.000001
+ K2=1.61
+ K3= {Ind}
+ K4=0.00058
+ K5=0.01
+ L=4.7627E-06
+ Is=16.0584
+ a=0.7637
+ L_Z0=0
+ L_EL=0
+ L_F0=0E6
+ PkZ=7895.26964
.ends XEL5050-472_sat

*======================================================================
* SPICE Model generated by Coilcraft
* Coilcraft Part Number : XEL5050-562
* Inductance = 5.6uH
*======================================================================
* Model Parameters:
*   Valid Frequency Range = 0.1MHz-50MHz
*   Ambient Temperature = 25 degC
*   Inductor Frequency Model
*   Use model for Frequency Domain simulations
*======================================================================
.subckt XEL5050-562_freq port1 port2 PARAMS: Cpar=8.1pF Ind=5.6uH
X1 port1 port2 Model1A PARAMS:
+ R1=2.55
+ R2=0.0226
+ C= {Cpar}
+ K1=0.000001
+ K2=2.13
+ K3= {Ind}
+ K4=0.00058
+ K5=0.01
+ L=5.4084E-06
+ Is=14.5077
+ a=0.7709
+ L_Z0=0
+ L_EL=0
+ L_F0=0E6
+ PkZ=9975.35719
.ends XEL5050-562_freq

*======================================================================
* SPICE Model generated by Coilcraft
* Coilcraft Part Number : XEL5050-562
* Inductance = 5.6uH
*======================================================================
* Model Parameters:
*   Valid Frequency Range = 0.1MHz-50MHz
*   Ambient Temperature = 25 degC
*   Inductor Saturation Model
*   Use model for Time Domain simulations
*======================================================================
.subckt XEL5050-562_sat port1 port2 PARAMS: Cpar=8.09pF Ind=5.6uH
X1 port1 port2 Model1C PARAMS:
+ R1=2.55
+ R2=0.0226
+ C= {Cpar}
+ K1=0.000001
+ K2=2.13
+ K3= {Ind}
+ K4=0.00058
+ K5=0.01
+ L=5.4084E-06
+ Is=14.5077
+ a=0.7709
+ L_Z0=0
+ L_EL=0
+ L_F0=0E6
+ PkZ=9975.35719
.ends XEL5050-562_sat

*======================================================================
* SPICE Model generated by Coilcraft
* Coilcraft Part Number : XEL5050-682
* Inductance = 6.8uH
*======================================================================
* Model Parameters:
*   Valid Frequency Range = 0.1MHz-40MHz
*   Ambient Temperature = 25 degC
*   Inductor Frequency Model
*   Use model for Frequency Domain simulations
*======================================================================
.subckt XEL5050-682_freq port1 port2 PARAMS: Cpar=8.2pF Ind=6.8uH
X1 port1 port2 Model1A PARAMS:
+ R1=2.55
+ R2=0.02675
+ C= {Cpar}
+ K1=0.000001
+ K2=2.58
+ K3= {Ind}
+ K4=0.00058
+ K5=0.01
+ L=5.9638E-06
+ Is=12.9024
+ a=0.768
+ L_Z0=0
+ L_EL=0
+ L_F0=0E6
+ PkZ=11491.9496
.ends XEL5050-682_freq

*======================================================================
* SPICE Model generated by Coilcraft
* Coilcraft Part Number : XEL5050-682
* Inductance = 6.8uH
*======================================================================
* Model Parameters:
*   Valid Frequency Range = 0.1MHz-40MHz
*   Ambient Temperature = 25 degC
*   Inductor Saturation Model
*   Use model for Time Domain simulations
*======================================================================
.subckt XEL5050-682_sat port1 port2 PARAMS: Cpar=8.191pF Ind=6.8uH
X1 port1 port2 Model1C PARAMS:
+ R1=2.55
+ R2=0.02675
+ C= {Cpar}
+ K1=0.000001
+ K2=2.58
+ K3= {Ind}
+ K4=0.00058
+ K5=0.01
+ L=5.9638E-06
+ Is=12.9024
+ a=0.768
+ L_Z0=0
+ L_EL=0
+ L_F0=0E6
+ PkZ=11491.9496
.ends XEL5050-682_sat

*======================================================================
* SPICE Model generated by Coilcraft
* Coilcraft Part Number : XEL5050-822
* Inductance = 8.2uH
*======================================================================
* Model Parameters:
*   Valid Frequency Range = 0.1MHz-36MHz
*   Ambient Temperature = 25 degC
*   Inductor Frequency Model
*   Use model for Frequency Domain simulations
*======================================================================
.subckt XEL5050-822_freq port1 port2 PARAMS: Cpar=7.8pF Ind=8.2uH
X1 port1 port2 Model1A PARAMS:
+ R1=2.55
+ R2=0.0318
+ C= {Cpar}
+ K1=0.000001
+ K2=2.76
+ K3= {Ind}
+ K4=0.00058
+ K5=0.01
+ L=7.6909E-06
+ Is=11.7853
+ a=0.7732
+ L_Z0=0
+ L_EL=0
+ L_F0=0E6
+ PkZ=11956.9671
.ends XEL5050-822_freq

*======================================================================
* SPICE Model generated by Coilcraft
* Coilcraft Part Number : XEL5050-822
* Inductance = 8.2uH
*======================================================================
* Model Parameters:
*   Valid Frequency Range = 0.1MHz-36MHz
*   Ambient Temperature = 25 degC
*   Inductor Saturation Model
*   Use model for Time Domain simulations
*======================================================================
.subckt XEL5050-822_sat port1 port2 PARAMS: Cpar=7.793pF Ind=8.2uH
X1 port1 port2 Model1C PARAMS:
+ R1=2.55
+ R2=0.0318
+ C= {Cpar}
+ K1=0.000001
+ K2=2.76
+ K3= {Ind}
+ K4=0.00058
+ K5=0.01
+ L=7.6909E-06
+ Is=11.7853
+ a=0.7732
+ L_Z0=0
+ L_EL=0
+ L_F0=0E6
+ PkZ=11956.9671
.ends XEL5050-822_sat

*======================================================================
* SPICE Model generated by Coilcraft
* Coilcraft Part Number : XEL5050-103
* Inductance = 10uH
*======================================================================
* Model Parameters:
*   Valid Frequency Range = 0.1MHz-30MHz
*   Ambient Temperature = 25 degC
*   Inductor Frequency Model
*   Use model for Frequency Domain simulations
*======================================================================
.subckt XEL5050-103_freq port1 port2 PARAMS: Cpar=8.2pF Ind=10uH
X1 port1 port2 Model1A PARAMS:
+ R1=2.55
+ R2=0.0409
+ C= {Cpar}
+ K1=0.000001
+ K2=2.72
+ K3= {Ind}
+ K4=0.00058
+ K5=0.01
+ L=9.7196E-06
+ Is=10.5227
+ a=0.7721
+ L_Z0=0
+ L_EL=0
+ L_F0=0E6
+ PkZ=11138.9416
.ends XEL5050-103_freq

*======================================================================
* SPICE Model generated by Coilcraft
* Coilcraft Part Number : XEL5050-103
* Inductance = 10uH
*======================================================================
* Model Parameters:
*   Valid Frequency Range = 0.1MHz-30MHz
*   Ambient Temperature = 25 degC
*   Inductor Saturation Model
*   Use model for Time Domain simulations
*======================================================================
.subckt XEL5050-103_sat port1 port2 PARAMS: Cpar=8.194pF Ind=10uH
X1 port1 port2 Model1C PARAMS:
+ R1=2.55
+ R2=0.0409
+ C= {Cpar}
+ K1=0.000001
+ K2=2.72
+ K3= {Ind}
+ K4=0.00058
+ K5=0.01
+ L=9.7196E-06
+ Is=10.5227
+ a=0.7721
+ L_Z0=0
+ L_EL=0
+ L_F0=0E6
+ PkZ=11138.9416
.ends XEL5050-103_sat

*======================================================================
* SPICE Model generated by Coilcraft
* Coilcraft Part Number : XEL5050-153
* Inductance = 15uH
*======================================================================
* Model Parameters:
*   Valid Frequency Range = 0.1MHz-30MHz
*   Ambient Temperature = 25 degC
*   Inductor Frequency Model
*   Use model for Frequency Domain simulations
*======================================================================
.subckt XEL5050-153_freq port1 port2 PARAMS: Cpar=7.8pF Ind=15uH
X1 port1 port2 Model1A PARAMS:
+ R1=5.1
+ R2=0.0697
+ C= {Cpar}
+ K1=0.000001
+ K2=5.84
+ K3= {Ind}
+ K4=0.00058
+ K5=0.01
+ L=0.00001373
+ Is=8.1322
+ a=0.8251
+ L_Z0=0
+ L_EL=0
+ L_F0=0E6
+ PkZ=21146.1979
.ends XEL5050-153_freq

*======================================================================
* SPICE Model generated by Coilcraft
* Coilcraft Part Number : XEL5050-153
* Inductance = 15uH
*======================================================================
* Model Parameters:
*   Valid Frequency Range = 0.1MHz-30MHz
*   Ambient Temperature = 25 degC
*   Inductor Saturation Model
*   Use model for Time Domain simulations
*======================================================================
.subckt XEL5050-153_sat port1 port2 PARAMS: Cpar=7.796pF Ind=15uH
X1 port1 port2 Model1C PARAMS:
+ R1=5.1
+ R2=0.0697
+ C= {Cpar}
+ K1=0.000001
+ K2=5.84
+ K3= {Ind}
+ K4=0.00058
+ K5=0.01
+ L=0.00001373
+ Is=8.1322
+ a=0.8251
+ L_Z0=0
+ L_EL=0
+ L_F0=0E6
+ PkZ=21146.1979
.ends XEL5050-153_sat

*======================================================================
* SPICE Model generated by Coilcraft
* Coilcraft Part Number : XEL5050-223
* Inductance = 22uH
*======================================================================
* Model Parameters:
*   Valid Frequency Range = 0.1MHz-25MHz
*   Ambient Temperature = 25 degC
*   Inductor Frequency Model
*   Use model for Frequency Domain simulations
*======================================================================
.subckt XEL5050-223_freq port1 port2 PARAMS: Cpar=8pF Ind=22uH
X1 port1 port2 Model1A PARAMS:
+ R1=3.56
+ R2=0.0906
+ C= {Cpar}
+ K1=0.000001
+ K2=6
+ K3= {Ind}
+ K4=0.00058
+ K5=0.01
+ L=1.9201E-05
+ Is=8.0267
+ a=0.751
+ L_Z0=0
+ L_EL=0
+ L_F0=0E6
+ PkZ=20238.2869
.ends XEL5050-223_freq

*======================================================================
* SPICE Model generated by Coilcraft
* Coilcraft Part Number : XEL5050-223
* Inductance = 22uH
*======================================================================
* Model Parameters:
*   Valid Frequency Range = 0.1MHz-25MHz
*   Ambient Temperature = 25 degC
*   Inductor Saturation Model
*   Use model for Time Domain simulations
*======================================================================
.subckt XEL5050-223_sat port1 port2 PARAMS: Cpar=7.998pF Ind=22uH
X1 port1 port2 Model1C PARAMS:
+ R1=3.56
+ R2=0.0906
+ C= {Cpar}
+ K1=0.000001
+ K2=6
+ K3= {Ind}
+ K4=0.00058
+ K5=0.01
+ L=1.9201E-05
+ Is=8.0267
+ a=0.751
+ L_Z0=0
+ L_EL=0
+ L_F0=0E6
+ PkZ=20238.2869
.ends XEL5050-223_sat

*======================================================================
* SPICE Model generated by Coilcraft
* Coilcraft Saturation Inductor Model
*======================================================================
* Model Parameters:
*   Valid Frequency Range Varies by Inductor
*   Ambient Temperature = 25 degC
*   Current Saturable Inductor Model
*======================================================================
.subckt Model1C Lin Lout PARAMS:
+ R1=1
+ R2=1
+ C=1
+ L=1
+ Is=1
+ a=1
+ PkZ=94.2 * {L} *1e6
R2 Lin N001 {R2}
R3 N001 Lout {PkZ}
C1 N001 N002 {C}
R1 N002 Lout {R1}
L1 N001 Lout flux={L*Is}*pwrs(tanh(pwrs((x/{Is}),{a})),{1/a})
.ends Model1C





*======================================================================
* SPICE Model generated by Coilcraft
* Coilcraft Power Inductor Model
*======================================================================
* Model Parameters:
*   Valid Frequency Range Varies by Inductor
*   Ambient Temperature = 25 degC
*   DC Bias Current = 0 A
*   Frequency Dependent Inductor Model
*======================================================================
.subckt Model1A Lin Lout PARAMS:
+ R1=1
+ R2=1
+ C=1
+ K1=1
+ K2=1
+ K3=1
+ K4=1
+ K5=1
R2 N001 Lin {R2}
R1 Lout N002 {R1}
C1 N002 N001 {C}
G_Rvar2 N001 Lout LAPLACE { V(N001, Lout) } {1/K2/(-S*S/4/PI^2)^0.25}
G_Rvar1 N001 N003 LAPLACE { V(N001, N003) } {1/K1/(-S*S/4/PI^2)^0.25}
G_Lvar N003 Lout  LAPLACE { V(N003, Lout) } {1/(S*1e-6*({K3*1e6}-({K4}*LOG({K5}*(sqrt(-S*S)/(2*pi))))))}
*This large resistance to ground has been added to prevent a floating node error
R3 N003 0 100Meg
.ends Model1A


.subckt Coilcraft_Inductor Lin Lout
R1 Lout Lin 100Meg
.ends Coilcraft_Inductor
