*======================================================================
* SPICE Model generated by Coilcraft
* Coilcraft Part Number : XEL6030-151
* Inductance = 150nH
*======================================================================
* Model Parameters:
*   Valid Frequency Range = 0.1MHz-200MHz
*   Ambient Temperature = 25 degC
*   Inductor Frequency Model
*   Use model for Frequency Domain simulations
*======================================================================
.subckt XEL6030-151_freq port1 port2 PARAMS: Cpar=7.1pF Ind=0.16uH
X1 port1 port2 Model1A PARAMS:
+ R1=8
+ R2=0.00135
+ C= {Cpar}
+ K1=0.000001
+ K2=0.032
+ K3= {Ind}
+ K4=0.000001
+ K5=0.000001
+ L=1.55E-07
+ Is=120.9623
+ a=0.6353
+ L_Z0=0
+ L_EL=0
+ L_F0=0E6
+ PkZ=343.419037
.ends XEL6030-151_freq

*======================================================================
* SPICE Model generated by Coilcraft
* Coilcraft Part Number : XEL6030-151
* Inductance = 150nH
*======================================================================
* Model Parameters:
*   Valid Frequency Range = 0.1MHz-200MHz
*   Ambient Temperature = 25 degC
*   Inductor Saturation Model
*   Use model for Time Domain simulations
*======================================================================
.subckt XEL6030-151_sat port1 port2 PARAMS: Cpar=7.1pF Ind=0.16uH
X1 port1 port2 Model1C PARAMS:
+ R1=8
+ R2=0.00135
+ C= {Cpar}
+ K1=0.000001
+ K2=0.032
+ K3= {Ind}
+ K4=0.000001
+ K5=0.000001
+ L=1.55E-07
+ Is=120.9623
+ a=0.6353
+ L_Z0=0
+ L_EL=0
+ L_F0=0E6
+ PkZ=343.419037
.ends XEL6030-151_sat

*======================================================================
* SPICE Model generated by Coilcraft
* Coilcraft Part Number : XEL6030-281
* Inductance = 280nH
*======================================================================
* Model Parameters:
*   Valid Frequency Range = 0.1MHz-200MHz
*   Ambient Temperature = 25 degC
*   Inductor Frequency Model
*   Use model for Frequency Domain simulations
*======================================================================
.subckt XEL6030-281_freq port1 port2 PARAMS: Cpar=8.4pF Ind=0.28uH
X1 port1 port2 Model1A PARAMS:
+ R1=8
+ R2=0.0021
+ C= {Cpar}
+ K1=0.000001
+ K2=0.068
+ K3= {Ind}
+ K4=0.000001
+ K5=0.000001
+ L=2.761E-07
+ Is=100.264
+ a=0.6171
+ L_Z0=0
+ L_EL=0
+ L_F0=0E6
+ PkZ=594.018669
.ends XEL6030-281_freq

*======================================================================
* SPICE Model generated by Coilcraft
* Coilcraft Part Number : XEL6030-281
* Inductance = 280nH
*======================================================================
* Model Parameters:
*   Valid Frequency Range = 0.1MHz-200MHz
*   Ambient Temperature = 25 degC
*   Inductor Saturation Model
*   Use model for Time Domain simulations
*======================================================================
.subckt XEL6030-281_sat port1 port2 PARAMS: Cpar=8.4pF Ind=0.28uH
X1 port1 port2 Model1C PARAMS:
+ R1=8
+ R2=0.0021
+ C= {Cpar}
+ K1=0.000001
+ K2=0.068
+ K3= {Ind}
+ K4=0.000001
+ K5=0.000001
+ L=2.761E-07
+ Is=100.264
+ a=0.6171
+ L_Z0=0
+ L_EL=0
+ L_F0=0E6
+ PkZ=594.018669
.ends XEL6030-281_sat

*======================================================================
* SPICE Model generated by Coilcraft
* Coilcraft Part Number : XEL6030-471
* Inductance = 470nH
*======================================================================
* Model Parameters:
*   Valid Frequency Range = 0.1MHz-150MHz
*   Ambient Temperature = 25 degC
*   Inductor Frequency Model
*   Use model for Frequency Domain simulations
*======================================================================
.subckt XEL6030-471_freq port1 port2 PARAMS: Cpar=11.8pF Ind=0.47uH
X1 port1 port2 Model1A PARAMS:
+ R1=7
+ R2=0.00301
+ C= {Cpar}
+ K1=0.000001
+ K2=0.135
+ K3= {Ind}
+ K4=0.01
+ K5=0.00002
+ L=4.777E-07
+ Is=78.3268
+ a=0.5977
+ L_Z0=0
+ L_EL=0
+ L_F0=0E6
+ PkZ=932.813269
.ends XEL6030-471_freq

*======================================================================
* SPICE Model generated by Coilcraft
* Coilcraft Part Number : XEL6030-471
* Inductance = 470nH
*======================================================================
* Model Parameters:
*   Valid Frequency Range = 0.1MHz-150MHz
*   Ambient Temperature = 25 degC
*   Inductor Saturation Model
*   Use model for Time Domain simulations
*======================================================================
.subckt XEL6030-471_sat port1 port2 PARAMS: Cpar=9.99pF Ind=0.47uH
X1 port1 port2 Model1C PARAMS:
+ R1=7
+ R2=0.00301
+ C= {Cpar}
+ K1=0.000001
+ K2=0.135
+ K3= {Ind}
+ K4=0.01
+ K5=0.00002
+ L=4.777E-07
+ Is=78.3268
+ a=0.5977
+ L_Z0=0
+ L_EL=0
+ L_F0=0E6
+ PkZ=932.813269
.ends XEL6030-471_sat

*======================================================================
* SPICE Model generated by Coilcraft
* Coilcraft Part Number : XEL6030-821
* Inductance = 820nH
*======================================================================
* Model Parameters:
*   Valid Frequency Range = 0.1MHz-100MHz
*   Ambient Temperature = 25 degC
*   Inductor Frequency Model
*   Use model for Frequency Domain simulations
*======================================================================
.subckt XEL6030-821_freq port1 port2 PARAMS: Cpar=11pF Ind=0.82uH
X1 port1 port2 Model1A PARAMS:
+ R1=9
+ R2=0.00509
+ C= {Cpar}
+ K1=0.000001
+ K2=0.25
+ K3= {Ind}
+ K4=0.000001
+ K5=0.000001
+ L=8.214E-07
+ Is=56.7847
+ a=0.6074
+ L_Z0=0
+ L_EL=0
+ L_F0=0E6
+ PkZ=1492.12013
.ends XEL6030-821_freq

*======================================================================
* SPICE Model generated by Coilcraft
* Coilcraft Part Number : XEL6030-821
* Inductance = 820nH
*======================================================================
* Model Parameters:
*   Valid Frequency Range = 0.1MHz-100MHz
*   Ambient Temperature = 25 degC
*   Inductor Saturation Model
*   Use model for Time Domain simulations
*======================================================================
.subckt XEL6030-821_sat port1 port2 PARAMS: Cpar=11pF Ind=0.82uH
X1 port1 port2 Model1C PARAMS:
+ R1=9
+ R2=0.00509
+ C= {Cpar}
+ K1=0.000001
+ K2=0.25
+ K3= {Ind}
+ K4=0.000001
+ K5=0.000001
+ L=8.214E-07
+ Is=56.7847
+ a=0.6074
+ L_Z0=0
+ L_EL=0
+ L_F0=0E6
+ PkZ=1492.12013
.ends XEL6030-821_sat

*======================================================================
* SPICE Model generated by Coilcraft
* Coilcraft Part Number : XEL6030-102
* Inductance = 1uH
*======================================================================
* Model Parameters:
*   Valid Frequency Range = 0.1MHz-100MHz
*   Ambient Temperature = 25 degC
*   Inductor Frequency Model
*   Use model for Frequency Domain simulations
*======================================================================
.subckt XEL6030-102_freq port1 port2 PARAMS: Cpar=11.8pF Ind=1uH
X1 port1 port2 Model1A PARAMS:
+ R1=8
+ R2=0.00632
+ C= {Cpar}
+ K1=0.000001
+ K2=0.363
+ K3= {Ind}
+ K4=0.000001
+ K5=0.000001
+ L=1.1115E-06
+ Is=47.1768
+ a=0.6069
+ L_Z0=0
+ L_EL=0
+ L_F0=0E6
+ PkZ=2003.47235
.ends XEL6030-102_freq

*======================================================================
* SPICE Model generated by Coilcraft
* Coilcraft Part Number : XEL6030-102
* Inductance = 1uH
*======================================================================
* Model Parameters:
*   Valid Frequency Range = 0.1MHz-100MHz
*   Ambient Temperature = 25 degC
*   Inductor Saturation Model
*   Use model for Time Domain simulations
*======================================================================
.subckt XEL6030-102_sat port1 port2 PARAMS: Cpar=11.8pF Ind=1uH
X1 port1 port2 Model1C PARAMS:
+ R1=8
+ R2=0.00632
+ C= {Cpar}
+ K1=0.000001
+ K2=0.363
+ K3= {Ind}
+ K4=0.000001
+ K5=0.000001
+ L=1.1115E-06
+ Is=47.1768
+ a=0.6069
+ L_Z0=0
+ L_EL=0
+ L_F0=0E6
+ PkZ=2003.47235
.ends XEL6030-102_sat

*======================================================================
* SPICE Model generated by Coilcraft
* Coilcraft Part Number : XEL6030-152
* Inductance = 1.5uH
*======================================================================
* Model Parameters:
*   Valid Frequency Range = 0.1MHz-75MHz
*   Ambient Temperature = 25 degC
*   Inductor Frequency Model
*   Use model for Frequency Domain simulations
*======================================================================
.subckt XEL6030-152_freq port1 port2 PARAMS: Cpar=11.7pF Ind=1.5uH
X1 port1 port2 Model1A PARAMS:
+ R1=10
+ R2=0.00957
+ C= {Cpar}
+ K1=0.000001
+ K2=0.565
+ K3= {Ind}
+ K4=0.000001
+ K5=0.000001
+ L=1.586E-06
+ Is=39.3149
+ a=0.6118
+ L_Z0=0
+ L_EL=0
+ L_F0=0E6
+ PkZ=2738.64709
.ends XEL6030-152_freq

*======================================================================
* SPICE Model generated by Coilcraft
* Coilcraft Part Number : XEL6030-152
* Inductance = 1.5uH
*======================================================================
* Model Parameters:
*   Valid Frequency Range = 0.1MHz-75MHz
*   Ambient Temperature = 25 degC
*   Inductor Saturation Model
*   Use model for Time Domain simulations
*======================================================================
.subckt XEL6030-152_sat port1 port2 PARAMS: Cpar=11.7pF Ind=1.5uH
X1 port1 port2 Model1C PARAMS:
+ R1=10
+ R2=0.00957
+ C= {Cpar}
+ K1=0.000001
+ K2=0.565
+ K3= {Ind}
+ K4=0.000001
+ K5=0.000001
+ L=1.586E-06
+ Is=39.3149
+ a=0.6118
+ L_Z0=0
+ L_EL=0
+ L_F0=0E6
+ PkZ=2738.64709
.ends XEL6030-152_sat

*======================================================================
* SPICE Model generated by Coilcraft
* Coilcraft Part Number : XEL6030-222
* Inductance = 2.2uH
*======================================================================
* Model Parameters:
*   Valid Frequency Range = 0.1MHz-75MHz
*   Ambient Temperature = 25 degC
*   Inductor Frequency Model
*   Use model for Frequency Domain simulations
*======================================================================
.subckt XEL6030-222_freq port1 port2 PARAMS: Cpar=11.7pF Ind=2.2uH
X1 port1 port2 Model1A PARAMS:
+ R1=9
+ R2=0.0127
+ C= {Cpar}
+ K1=0.000001
+ K2=0.861
+ K3= {Ind}
+ K4=0.000001
+ K5=0.000001
+ L=2.1214E-06
+ Is=34.2431
+ a=0.6197
+ L_Z0=0
+ L_EL=0
+ L_F0=0E6
+ PkZ=3917.87254
.ends XEL6030-222_freq

*======================================================================
* SPICE Model generated by Coilcraft
* Coilcraft Part Number : XEL6030-222
* Inductance = 2.2uH
*======================================================================
* Model Parameters:
*   Valid Frequency Range = 0.1MHz-75MHz
*   Ambient Temperature = 25 degC
*   Inductor Saturation Model
*   Use model for Time Domain simulations
*======================================================================
.subckt XEL6030-222_sat port1 port2 PARAMS: Cpar=11.7pF Ind=2.2uH
X1 port1 port2 Model1C PARAMS:
+ R1=9
+ R2=0.0127
+ C= {Cpar}
+ K1=0.000001
+ K2=0.861
+ K3= {Ind}
+ K4=0.000001
+ K5=0.000001
+ L=2.1214E-06
+ Is=34.2431
+ a=0.6197
+ L_Z0=0
+ L_EL=0
+ L_F0=0E6
+ PkZ=3917.87254
.ends XEL6030-222_sat

*======================================================================
* SPICE Model generated by Coilcraft
* Coilcraft Part Number : XEL6030-332
* Inductance = 3.3uH
*======================================================================
* Model Parameters:
*   Valid Frequency Range = 0.1MHz-50MHz
*   Ambient Temperature = 25 degC
*   Inductor Frequency Model
*   Use model for Frequency Domain simulations
*======================================================================
.subckt XEL6030-332_freq port1 port2 PARAMS: Cpar=12.9pF Ind=3.3uH
X1 port1 port2 Model1A PARAMS:
+ R1=13
+ R2=0.01992
+ C= {Cpar}
+ K1=0.000001
+ K2=1.01
+ K3= {Ind}
+ K4=0.000001
+ K5=0.000001
+ L=3.1878E-06
+ Is=28.4384
+ a=0.6069
+ L_Z0=0
+ L_EL=0
+ L_F0=0E6
+ PkZ=3979.72249
.ends XEL6030-332_freq

*======================================================================
* SPICE Model generated by Coilcraft
* Coilcraft Part Number : XEL6030-332
* Inductance = 3.3uH
*======================================================================
* Model Parameters:
*   Valid Frequency Range = 0.1MHz-50MHz
*   Ambient Temperature = 25 degC
*   Inductor Saturation Model
*   Use model for Time Domain simulations
*======================================================================
.subckt XEL6030-332_sat port1 port2 PARAMS: Cpar=12.9pF Ind=3.3uH
X1 port1 port2 Model1C PARAMS:
+ R1=13
+ R2=0.01992
+ C= {Cpar}
+ K1=0.000001
+ K2=1.01
+ K3= {Ind}
+ K4=0.000001
+ K5=0.000001
+ L=3.1878E-06
+ Is=28.4384
+ a=0.6069
+ L_Z0=0
+ L_EL=0
+ L_F0=0E6
+ PkZ=3979.72249
.ends XEL6030-332_sat

*======================================================================
* SPICE Model generated by Coilcraft
* Coilcraft Saturation Inductor Model
*======================================================================
* Model Parameters:
*   Valid Frequency Range Varies by Inductor
*   Ambient Temperature = 25 degC
*   Current Saturable Inductor Model
*======================================================================
.subckt Model1C Lin Lout PARAMS:
+ R1=1
+ R2=1
+ C=1
+ L=1
+ Is=1
+ a=1
+ PkZ=94.2 * {L} *1e6
R2 Lin N001 {R2}
R3 N001 Lout {PkZ}
C1 N001 N002 {C}
R1 N002 Lout {R1}
L1 N001 Lout flux={L*Is}*pwrs(tanh(pwrs((x/{Is}),{a})),{1/a})
.ends Model1C





*======================================================================
* SPICE Model generated by Coilcraft
* Coilcraft Power Inductor Model
*======================================================================
* Model Parameters:
*   Valid Frequency Range Varies by Inductor
*   Ambient Temperature = 25 degC
*   DC Bias Current = 0 A
*   Frequency Dependent Inductor Model
*======================================================================
.subckt Model1A Lin Lout PARAMS:
+ R1=1
+ R2=1
+ C=1
+ K1=1
+ K2=1
+ K3=1
+ K4=1
+ K5=1
R2 N001 Lin {R2}
R1 Lout N002 {R1}
C1 N002 N001 {C}
G_Rvar2 N001 Lout LAPLACE { V(N001, Lout) } {1/K2/(-S*S/4/PI^2)^0.25}
G_Rvar1 N001 N003 LAPLACE { V(N001, N003) } {1/K1/(-S*S/4/PI^2)^0.25}
G_Lvar N003 Lout  LAPLACE { V(N003, Lout) } {1/(S*1e-6*({K3*1e6}-({K4}*LOG({K5}*(sqrt(-S*S)/(2*pi))))))}
*This large resistance to ground has been added to prevent a floating node error
R3 N003 0 100Meg
.ends Model1A


.subckt Coilcraft_Inductor Lin Lout
R1 Lout Lin 100Meg
.ends Coilcraft_Inductor
