*======================================================================
* SPICE Model generated by Coilcraft
* Coilcraft Part Number : XFL2006-102
* Inductance = 1uH
*======================================================================
* Model Parameters:
*   Valid Frequency Range = 0.1MHz-200MHz
*   Ambient Temperature = 25 degC
*   Inductor Frequency Model
*   Use model for Frequency Domain simulations
*======================================================================
.subckt XFL2006-102_freq port1 port2 PARAMS: Cpar=0.88pF Ind=1uH
X1 port1 port2 Model1A PARAMS:
+ R1=170
+ R2=0.153
+ C= {Cpar}
+ K1=0.00006
+ K2=0.24
+ K3= {Ind}
+ K4=0.006
+ K5=0.000009
+ L=1.0071E-06
+ Is=1.7916
+ a=0.9115
+ L_Z0=0
+ L_EL=0
+ L_F0=0E6
+ PkZ=2127.21191
.ends XFL2006-102_freq

*======================================================================
* SPICE Model generated by Coilcraft
* Coilcraft Part Number : XFL2006-102
* Inductance = 1uH
*======================================================================
* Model Parameters:
*   Valid Frequency Range = 0.1MHz-200MHz
*   Ambient Temperature = 25 degC
*   Inductor Saturation Model
*   Use model for Time Domain simulations
*======================================================================
.subckt XFL2006-102_sat port1 port2 PARAMS: Cpar=0.841pF Ind=1uH
X1 port1 port2 Model1C PARAMS:
+ R1=170
+ R2=0.153
+ C= {Cpar}
+ K1=0.00006
+ K2=0.24
+ K3= {Ind}
+ K4=0.006
+ K5=0.000009
+ L=1.0071E-06
+ Is=1.7916
+ a=0.9115
+ L_Z0=0
+ L_EL=0
+ L_F0=0E6
+ PkZ=2127.21191
.ends XFL2006-102_sat

*======================================================================
* SPICE Model generated by Coilcraft
* Coilcraft Part Number : XFL2006-222
* Inductance = 2.2uH
*======================================================================
* Model Parameters:
*   Valid Frequency Range = 0.1MHz-150MHz
*   Ambient Temperature = 25 degC
*   Inductor Frequency Model
*   Use model for Frequency Domain simulations
*======================================================================
.subckt XFL2006-222_freq port1 port2 PARAMS: Cpar=0.96pF Ind=2.2uH
X1 port1 port2 Model1A PARAMS:
+ R1=110
+ R2=0.278
+ C= {Cpar}
+ K1=0.00006
+ K2=0.42
+ K3= {Ind}
+ K4=0.007
+ K5=0.000009
+ L=2.1413E-06
+ Is=1.2117
+ a=1.3293
+ L_Z0=0
+ L_EL=0
+ L_F0=0E6
+ PkZ=3631.65704
.ends XFL2006-222_freq

*======================================================================
* SPICE Model generated by Coilcraft
* Coilcraft Part Number : XFL2006-222
* Inductance = 2.2uH
*======================================================================
* Model Parameters:
*   Valid Frequency Range = 0.1MHz-150MHz
*   Ambient Temperature = 25 degC
*   Inductor Saturation Model
*   Use model for Time Domain simulations
*======================================================================
.subckt XFL2006-222_sat port1 port2 PARAMS: Cpar=0.939pF Ind=2.2uH
X1 port1 port2 Model1C PARAMS:
+ R1=110
+ R2=0.278
+ C= {Cpar}
+ K1=0.00006
+ K2=0.42
+ K3= {Ind}
+ K4=0.007
+ K5=0.000009
+ L=2.1413E-06
+ Is=1.2117
+ a=1.3293
+ L_Z0=0
+ L_EL=0
+ L_F0=0E6
+ PkZ=3631.65704
.ends XFL2006-222_sat

*======================================================================
* SPICE Model generated by Coilcraft
* Coilcraft Part Number : XFL2006-332
* Inductance = 3.3uH
*======================================================================
* Model Parameters:
*   Valid Frequency Range = 0.1MHz-100MHz
*   Ambient Temperature = 25 degC
*   Inductor Frequency Model
*   Use model for Frequency Domain simulations
*======================================================================
.subckt XFL2006-332_freq port1 port2 PARAMS: Cpar=0.98pF Ind=3.3uH
X1 port1 port2 Model1A PARAMS:
+ R1=125
+ R2=0.46
+ C= {Cpar}
+ K1=0.00007
+ K2=0.72
+ K3= {Ind}
+ K4=0.008
+ K5=0.000009
+ L=3.3529E-06
+ Is=0.9872
+ a=0.9828
+ L_Z0=0
+ L_EL=0
+ L_F0=0E6
+ PkZ=5411.49393
.ends XFL2006-332_freq

*======================================================================
* SPICE Model generated by Coilcraft
* Coilcraft Part Number : XFL2006-332
* Inductance = 3.3uH
*======================================================================
* Model Parameters:
*   Valid Frequency Range = 0.1MHz-100MHz
*   Ambient Temperature = 25 degC
*   Inductor Saturation Model
*   Use model for Time Domain simulations
*======================================================================
.subckt XFL2006-332_sat port1 port2 PARAMS: Cpar=0.964pF Ind=3.3uH
X1 port1 port2 Model1C PARAMS:
+ R1=125
+ R2=0.46
+ C= {Cpar}
+ K1=0.00007
+ K2=0.72
+ K3= {Ind}
+ K4=0.008
+ K5=0.000009
+ L=3.3529E-06
+ Is=0.9872
+ a=0.9828
+ L_Z0=0
+ L_EL=0
+ L_F0=0E6
+ PkZ=5411.49393
.ends XFL2006-332_sat

*======================================================================
* SPICE Model generated by Coilcraft
* Coilcraft Part Number : XFL2006-472
* Inductance = 4.7uH
*======================================================================
* Model Parameters:
*   Valid Frequency Range = 0.1MHz-90MHz
*   Ambient Temperature = 25 degC
*   Inductor Frequency Model
*   Use model for Frequency Domain simulations
*======================================================================
.subckt XFL2006-472_freq port1 port2 PARAMS: Cpar=1.11pF Ind=4.7uH
X1 port1 port2 Model1A PARAMS:
+ R1=150
+ R2=0.665
+ C= {Cpar}
+ K1=0.00007
+ K2=1
+ K3= {Ind}
+ K4=0.012
+ K5=0.000009
+ L=5.1021E-06
+ Is=0.7305
+ a=1.095
+ L_Z0=0
+ L_EL=0
+ L_F0=0E6
+ PkZ=6440.27518
.ends XFL2006-472_freq

*======================================================================
* SPICE Model generated by Coilcraft
* Coilcraft Part Number : XFL2006-472
* Inductance = 4.7uH
*======================================================================
* Model Parameters:
*   Valid Frequency Range = 0.1MHz-90MHz
*   Ambient Temperature = 25 degC
*   Inductor Saturation Model
*   Use model for Time Domain simulations
*======================================================================
.subckt XFL2006-472_sat port1 port2 PARAMS: Cpar=1.092pF Ind=4.7uH
X1 port1 port2 Model1C PARAMS:
+ R1=150
+ R2=0.665
+ C= {Cpar}
+ K1=0.00007
+ K2=1
+ K3= {Ind}
+ K4=0.012
+ K5=0.000009
+ L=5.1021E-06
+ Is=0.7305
+ a=1.095
+ L_Z0=0
+ L_EL=0
+ L_F0=0E6
+ PkZ=6440.27518
.ends XFL2006-472_sat

*======================================================================
* SPICE Model generated by Coilcraft
* Coilcraft Part Number : XFL2006-562
* Inductance = 5.6uH
*======================================================================
* Model Parameters:
*   Valid Frequency Range = 0.1MHz-80MHz
*   Ambient Temperature = 25 degC
*   Inductor Frequency Model
*   Use model for Frequency Domain simulations
*======================================================================
.subckt XFL2006-562_freq port1 port2 PARAMS: Cpar=1.13pF Ind=5.6uH
X1 port1 port2 Model1A PARAMS:
+ R1=225
+ R2=0.75
+ C= {Cpar}
+ K1=0.00005
+ K2=1.4
+ K3= {Ind}
+ K4=0.025
+ K5=0.0000096
+ L=5.7364E-06
+ Is=0.7592
+ a=0.8892
+ L_Z0=0
+ L_EL=0
+ L_F0=0E6
+ PkZ=7376.95409
.ends XFL2006-562_freq

*======================================================================
* SPICE Model generated by Coilcraft
* Coilcraft Part Number : XFL2006-562
* Inductance = 5.6uH
*======================================================================
* Model Parameters:
*   Valid Frequency Range = 0.1MHz-80MHz
*   Ambient Temperature = 25 degC
*   Inductor Saturation Model
*   Use model for Time Domain simulations
*======================================================================
.subckt XFL2006-562_sat port1 port2 PARAMS: Cpar=1.098pF Ind=5.6uH
X1 port1 port2 Model1C PARAMS:
+ R1=225
+ R2=0.75
+ C= {Cpar}
+ K1=0.00005
+ K2=1.4
+ K3= {Ind}
+ K4=0.025
+ K5=0.0000096
+ L=5.7364E-06
+ Is=0.7592
+ a=0.8892
+ L_Z0=0
+ L_EL=0
+ L_F0=0E6
+ PkZ=7376.95409
.ends XFL2006-562_sat

*======================================================================
* SPICE Model generated by Coilcraft
* Coilcraft Part Number : XFL2006-682
* Inductance = 6.8uH
*======================================================================
* Model Parameters:
*   Valid Frequency Range = 0.1MHz-80MHz
*   Ambient Temperature = 25 degC
*   Inductor Frequency Model
*   Use model for Frequency Domain simulations
*======================================================================
.subckt XFL2006-682_freq port1 port2 PARAMS: Cpar=1.09pF Ind=6.8uH
X1 port1 port2 Model1A PARAMS:
+ R1=210
+ R2=0.92
+ C= {Cpar}
+ K1=0.00008
+ K2=1.6
+ K3= {Ind}
+ K4=0.03
+ K5=0.0000096
+ L=6.8622E-06
+ Is=0.7062
+ a=0.7989
+ L_Z0=0
+ L_EL=0
+ L_F0=0E6
+ PkZ=8645.07767
.ends XFL2006-682_freq

*======================================================================
* SPICE Model generated by Coilcraft
* Coilcraft Part Number : XFL2006-682
* Inductance = 6.8uH
*======================================================================
* Model Parameters:
*   Valid Frequency Range = 0.1MHz-80MHz
*   Ambient Temperature = 25 degC
*   Inductor Saturation Model
*   Use model for Time Domain simulations
*======================================================================
.subckt XFL2006-682_sat port1 port2 PARAMS: Cpar=1.06pF Ind=6.8uH
X1 port1 port2 Model1C PARAMS:
+ R1=210
+ R2=0.92
+ C= {Cpar}
+ K1=0.00008
+ K2=1.6
+ K3= {Ind}
+ K4=0.03
+ K5=0.0000096
+ L=6.8622E-06
+ Is=0.7062
+ a=0.7989
+ L_Z0=0
+ L_EL=0
+ L_F0=0E6
+ PkZ=8645.07767
.ends XFL2006-682_sat

*======================================================================
* SPICE Model generated by Coilcraft
* Coilcraft Part Number : XFL2006-822
* Inductance = 8.2uH
*======================================================================
* Model Parameters:
*   Valid Frequency Range = 0.1MHz-70MHz
*   Ambient Temperature = 25 degC
*   Inductor Frequency Model
*   Use model for Frequency Domain simulations
*======================================================================
.subckt XFL2006-822_freq port1 port2 PARAMS: Cpar=1.14pF Ind=8.2uH
X1 port1 port2 Model1A PARAMS:
+ R1=175
+ R2=1.08
+ C= {Cpar}
+ K1=0.00008
+ K2=2.1
+ K3= {Ind}
+ K4=0.045
+ K5=0.0000098
+ L=7.9498E-06
+ Is=0.5424
+ a=1.0977
+ L_Z0=0
+ L_EL=0
+ L_F0=0E6
+ PkZ=11037.4541
.ends XFL2006-822_freq

*======================================================================
* SPICE Model generated by Coilcraft
* Coilcraft Part Number : XFL2006-822
* Inductance = 8.2uH
*======================================================================
* Model Parameters:
*   Valid Frequency Range = 0.1MHz-70MHz
*   Ambient Temperature = 25 degC
*   Inductor Saturation Model
*   Use model for Time Domain simulations
*======================================================================
.subckt XFL2006-822_sat port1 port2 PARAMS: Cpar=1.101pF Ind=8.2uH
X1 port1 port2 Model1C PARAMS:
+ R1=175
+ R2=1.08
+ C= {Cpar}
+ K1=0.00008
+ K2=2.1
+ K3= {Ind}
+ K4=0.045
+ K5=0.0000098
+ L=7.9498E-06
+ Is=0.5424
+ a=1.0977
+ L_Z0=0
+ L_EL=0
+ L_F0=0E6
+ PkZ=11037.4541
.ends XFL2006-822_sat

*======================================================================
* SPICE Model generated by Coilcraft
* Coilcraft Part Number : XFL2006-103
* Inductance = 10uH
*======================================================================
* Model Parameters:
*   Valid Frequency Range = 0.1MHz-60MHz
*   Ambient Temperature = 25 degC
*   Inductor Frequency Model
*   Use model for Frequency Domain simulations
*======================================================================
.subckt XFL2006-103_freq port1 port2 PARAMS: Cpar=1.17pF Ind=10uH
X1 port1 port2 Model1A PARAMS:
+ R1=170
+ R2=1.27
+ C= {Cpar}
+ K1=0.00018
+ K2=2.6
+ K3= {Ind}
+ K4=0.08
+ K5=0.0000098
+ L=1.0093E-05
+ Is=0.5531
+ a=1.0526
+ L_Z0=0
+ L_EL=0
+ L_F0=0E6
+ PkZ=13041.4494
.ends XFL2006-103_freq

*======================================================================
* SPICE Model generated by Coilcraft
* Coilcraft Part Number : XFL2006-103
* Inductance = 10uH
*======================================================================
* Model Parameters:
*   Valid Frequency Range = 0.1MHz-60MHz
*   Ambient Temperature = 25 degC
*   Inductor Saturation Model
*   Use model for Time Domain simulations
*======================================================================
.subckt XFL2006-103_sat port1 port2 PARAMS: Cpar=1.113pF Ind=10uH
X1 port1 port2 Model1C PARAMS:
+ R1=170
+ R2=1.27
+ C= {Cpar}
+ K1=0.00018
+ K2=2.6
+ K3= {Ind}
+ K4=0.08
+ K5=0.0000098
+ L=1.0093E-05
+ Is=0.5531
+ a=1.0526
+ L_Z0=0
+ L_EL=0
+ L_F0=0E6
+ PkZ=13041.4494
.ends XFL2006-103_sat

*======================================================================
* SPICE Model generated by Coilcraft
* Coilcraft Part Number : XFL2006-153
* Inductance = 15uH
*======================================================================
* Model Parameters:
*   Valid Frequency Range = 0.1MHz-60MHz
*   Ambient Temperature = 25 degC
*   Inductor Frequency Model
*   Use model for Frequency Domain simulations
*======================================================================
.subckt XFL2006-153_freq port1 port2 PARAMS: Cpar=1.26pF Ind=15uH
X1 port1 port2 Model1A PARAMS:
+ R1=120
+ R2=2.02
+ C= {Cpar}
+ K1=0.00018
+ K2=3.7
+ K3= {Ind}
+ K4=0.13
+ K5=0.0000098
+ L=1.5067E-05
+ Is=0.483
+ a=0.884
+ L_Z0=0
+ L_EL=0
+ L_F0=0E6
+ PkZ=18251.6152
.ends XFL2006-153_freq

*======================================================================
* SPICE Model generated by Coilcraft
* Coilcraft Part Number : XFL2006-153
* Inductance = 15uH
*======================================================================
* Model Parameters:
*   Valid Frequency Range = 0.1MHz-60MHz
*   Ambient Temperature = 25 degC
*   Inductor Saturation Model
*   Use model for Time Domain simulations
*======================================================================
.subckt XFL2006-153_sat port1 port2 PARAMS: Cpar=1.196pF Ind=15uH
X1 port1 port2 Model1C PARAMS:
+ R1=120
+ R2=2.02
+ C= {Cpar}
+ K1=0.00018
+ K2=3.7
+ K3= {Ind}
+ K4=0.13
+ K5=0.0000098
+ L=1.5067E-05
+ Is=0.483
+ a=0.884
+ L_Z0=0
+ L_EL=0
+ L_F0=0E6
+ PkZ=18251.6152
.ends XFL2006-153_sat

*======================================================================
* SPICE Model generated by Coilcraft
* Coilcraft Part Number : XFL2006-223
* Inductance = 22uH
*======================================================================
* Model Parameters:
*   Valid Frequency Range = 0.1MHz-50MHz
*   Ambient Temperature = 25 degC
*   Inductor Frequency Model
*   Use model for Frequency Domain simulations
*======================================================================
.subckt XFL2006-223_freq port1 port2 PARAMS: Cpar=1.25pF Ind=22uH
X1 port1 port2 Model1A PARAMS:
+ R1=145
+ R2=2.78
+ C= {Cpar}
+ K1=0.00008
+ K2=5.2
+ K3= {Ind}
+ K4=0.15
+ K5=0.0000099
+ L=2.1844E-05
+ Is=0.3892
+ a=0.8878
+ L_Z0=0
+ L_EL=0
+ L_F0=0E6
+ PkZ=23176.6137
.ends XFL2006-223_freq

*======================================================================
* SPICE Model generated by Coilcraft
* Coilcraft Part Number : XFL2006-223
* Inductance = 22uH
*======================================================================
* Model Parameters:
*   Valid Frequency Range = 0.1MHz-50MHz
*   Ambient Temperature = 25 degC
*   Inductor Saturation Model
*   Use model for Time Domain simulations
*======================================================================
.subckt XFL2006-223_sat port1 port2 PARAMS: Cpar=1.201pF Ind=22uH
X1 port1 port2 Model1C PARAMS:
+ R1=145
+ R2=2.78
+ C= {Cpar}
+ K1=0.00008
+ K2=5.2
+ K3= {Ind}
+ K4=0.15
+ K5=0.0000099
+ L=2.1844E-05
+ Is=0.3892
+ a=0.8878
+ L_Z0=0
+ L_EL=0
+ L_F0=0E6
+ PkZ=23176.6137
.ends XFL2006-223_sat

*======================================================================
* SPICE Model generated by Coilcraft
* Coilcraft Part Number : XFL2006-333
* Inductance = 33uH
*======================================================================
* Model Parameters:
*   Valid Frequency Range = 0.1MHz-40MHz
*   Ambient Temperature = 25 degC
*   Inductor Frequency Model
*   Use model for Frequency Domain simulations
*======================================================================
.subckt XFL2006-333_freq port1 port2 PARAMS: Cpar=1.34pF Ind=33uH
X1 port1 port2 Model1A PARAMS:
+ R1=160
+ R2=4.45
+ C= {Cpar}
+ K1=0.00008
+ K2=9
+ K3= {Ind}
+ K4=0.38
+ K5=0.00000995
+ L=3.2688E-05
+ Is=0.3696
+ a=0.7145
+ L_Z0=0
+ L_EL=0
+ L_F0=0E6
+ PkZ=34145.3016
.ends XFL2006-333_freq

*======================================================================
* SPICE Model generated by Coilcraft
* Coilcraft Part Number : XFL2006-333
* Inductance = 33uH
*======================================================================
* Model Parameters:
*   Valid Frequency Range = 0.1MHz-40MHz
*   Ambient Temperature = 25 degC
*   Inductor Saturation Model
*   Use model for Time Domain simulations
*======================================================================
.subckt XFL2006-333_sat port1 port2 PARAMS: Cpar=1.256pF Ind=33uH
X1 port1 port2 Model1C PARAMS:
+ R1=160
+ R2=4.45
+ C= {Cpar}
+ K1=0.00008
+ K2=9
+ K3= {Ind}
+ K4=0.38
+ K5=0.00000995
+ L=3.2688E-05
+ Is=0.3696
+ a=0.7145
+ L_Z0=0
+ L_EL=0
+ L_F0=0E6
+ PkZ=34145.3016
.ends XFL2006-333_sat

*======================================================================
* SPICE Model generated by Coilcraft
* Coilcraft Part Number : XFL2006-473
* Inductance = 47uH
*======================================================================
* Model Parameters:
*   Valid Frequency Range = 0.1MHz-30MHz
*   Ambient Temperature = 25 degC
*   Inductor Frequency Model
*   Use model for Frequency Domain simulations
*======================================================================
.subckt XFL2006-473_freq port1 port2 PARAMS: Cpar=1.33pF Ind=47uH
X1 port1 port2 Model1A PARAMS:
+ R1=180
+ R2=5.6
+ C= {Cpar}
+ K1=0.00008
+ K2=13
+ K3= {Ind}
+ K4=0.65
+ K5=0.00000997
+ L=4.3075E-05
+ Is=0.3295
+ a=0.7688
+ L_Z0=0
+ L_EL=0
+ L_F0=0E6
+ PkZ=44797.213
.ends XFL2006-473_freq

*======================================================================
* SPICE Model generated by Coilcraft
* Coilcraft Part Number : XFL2006-473
* Inductance = 47uH
*======================================================================
* Model Parameters:
*   Valid Frequency Range = 0.1MHz-30MHz
*   Ambient Temperature = 25 degC
*   Inductor Saturation Model
*   Use model for Time Domain simulations
*======================================================================
.subckt XFL2006-473_sat port1 port2 PARAMS: Cpar=1.232pF Ind=47uH
X1 port1 port2 Model1C PARAMS:
+ R1=180
+ R2=5.6
+ C= {Cpar}
+ K1=0.00008
+ K2=13
+ K3= {Ind}
+ K4=0.65
+ K5=0.00000997
+ L=4.3075E-05
+ Is=0.3295
+ a=0.7688
+ L_Z0=0
+ L_EL=0
+ L_F0=0E6
+ PkZ=44797.213
.ends XFL2006-473_sat

*======================================================================
* SPICE Model generated by Coilcraft
* Coilcraft Part Number : XFL2006-563
* Inductance = 56uH
*======================================================================
* Model Parameters:
*   Valid Frequency Range = 0.1MHz-30MHz
*   Ambient Temperature = 25 degC
*   Inductor Frequency Model
*   Use model for Frequency Domain simulations
*======================================================================
.subckt XFL2006-563_freq port1 port2 PARAMS: Cpar=1.5pF Ind=56uH
X1 port1 port2 Model1A PARAMS:
+ R1=140
+ R2=6.65
+ C= {Cpar}
+ K1=0.00008
+ K2=17
+ K3= {Ind}
+ K4=0.74
+ K5=0.00000998
+ L=5.5752E-05
+ Is=0.2989
+ a=0.8137
+ L_Z0=0
+ L_EL=0
+ L_F0=0E6
+ PkZ=55867.2353
.ends XFL2006-563_freq

*======================================================================
* SPICE Model generated by Coilcraft
* Coilcraft Part Number : XFL2006-563
* Inductance = 56uH
*======================================================================
* Model Parameters:
*   Valid Frequency Range = 0.1MHz-30MHz
*   Ambient Temperature = 25 degC
*   Inductor Saturation Model
*   Use model for Time Domain simulations
*======================================================================
.subckt XFL2006-563_sat port1 port2 PARAMS: Cpar=1.398pF Ind=56uH
X1 port1 port2 Model1C PARAMS:
+ R1=140
+ R2=6.65
+ C= {Cpar}
+ K1=0.00008
+ K2=17
+ K3= {Ind}
+ K4=0.74
+ K5=0.00000998
+ L=5.5752E-05
+ Is=0.2989
+ a=0.8137
+ L_Z0=0
+ L_EL=0
+ L_F0=0E6
+ PkZ=55867.2353
.ends XFL2006-563_sat

*======================================================================
* SPICE Model generated by Coilcraft
* Coilcraft Part Number : XFL2006-683
* Inductance = 68uH
*======================================================================
* Model Parameters:
*   Valid Frequency Range = 0.1MHz-25MHz
*   Ambient Temperature = 25 degC
*   Inductor Frequency Model
*   Use model for Frequency Domain simulations
*======================================================================
.subckt XFL2006-683_freq port1 port2 PARAMS: Cpar=1.47pF Ind=68uH
X1 port1 port2 Model1A PARAMS:
+ R1=170
+ R2=8.5
+ C= {Cpar}
+ K1=0.00008
+ K2=22
+ K3= {Ind}
+ K4=0.82
+ K5=0.00000999
+ L=6.4801E-05
+ Is=0.2595
+ a=0.8387
+ L_Z0=0
+ L_EL=0
+ L_F0=0E6
+ PkZ=66083.1603
.ends XFL2006-683_freq

*======================================================================
* SPICE Model generated by Coilcraft
* Coilcraft Part Number : XFL2006-683
* Inductance = 68uH
*======================================================================
* Model Parameters:
*   Valid Frequency Range = 0.1MHz-25MHz
*   Ambient Temperature = 25 degC
*   Inductor Saturation Model
*   Use model for Time Domain simulations
*======================================================================
.subckt XFL2006-683_sat port1 port2 PARAMS: Cpar=1.38pF Ind=68uH
X1 port1 port2 Model1C PARAMS:
+ R1=170
+ R2=8.5
+ C= {Cpar}
+ K1=0.00008
+ K2=22
+ K3= {Ind}
+ K4=0.82
+ K5=0.00000999
+ L=6.4801E-05
+ Is=0.2595
+ a=0.8387
+ L_Z0=0
+ L_EL=0
+ L_F0=0E6
+ PkZ=66083.1603
.ends XFL2006-683_sat

*======================================================================
* SPICE Model generated by Coilcraft
* Coilcraft Part Number : XFL2006-823
* Inductance = 82uH
*======================================================================
* Model Parameters:
*   Valid Frequency Range = 0.1MHz-25MHz
*   Ambient Temperature = 25 degC
*   Inductor Frequency Model
*   Use model for Frequency Domain simulations
*======================================================================
.subckt XFL2006-823_freq port1 port2 PARAMS: Cpar=1.42pF Ind=82uH
X1 port1 port2 Model1A PARAMS:
+ R1=180
+ R2=9.25
+ C= {Cpar}
+ K1=0.00016
+ K2=27
+ K3= {Ind}
+ K4=1
+ K5=0.00001
+ L=8.1537E-05
+ Is=0.2205
+ a=0.8552
+ L_Z0=0
+ L_EL=0
+ L_F0=0E6
+ PkZ=77993.8159
.ends XFL2006-823_freq

*======================================================================
* SPICE Model generated by Coilcraft
* Coilcraft Part Number : XFL2006-823
* Inductance = 82uH
*======================================================================
* Model Parameters:
*   Valid Frequency Range = 0.1MHz-25MHz
*   Ambient Temperature = 25 degC
*   Inductor Saturation Model
*   Use model for Time Domain simulations
*======================================================================
.subckt XFL2006-823_sat port1 port2 PARAMS: Cpar=1.334pF Ind=82uH
X1 port1 port2 Model1C PARAMS:
+ R1=180
+ R2=9.25
+ C= {Cpar}
+ K1=0.00016
+ K2=27
+ K3= {Ind}
+ K4=1
+ K5=0.00001
+ L=8.1537E-05
+ Is=0.2205
+ a=0.8552
+ L_Z0=0
+ L_EL=0
+ L_F0=0E6
+ PkZ=77993.8159
.ends XFL2006-823_sat

*======================================================================
* SPICE Model generated by Coilcraft
* Coilcraft Part Number : XFL2006-104
* Inductance = 100uH
*======================================================================
* Model Parameters:
*   Valid Frequency Range = 0.1MHz-20MHz
*   Ambient Temperature = 25 degC
*   Inductor Frequency Model
*   Use model for Frequency Domain simulations
*======================================================================
.subckt XFL2006-104_freq port1 port2 PARAMS: Cpar=1.48pF Ind=100uH
X1 port1 port2 Model1A PARAMS:
+ R1=180
+ R2=11.1
+ C= {Cpar}
+ K1=0.00036
+ K2=34
+ K3= {Ind}
+ K4=1.2
+ K5=0.00001
+ L=0.00010803
+ Is=0.2241
+ a=0.6779
+ L_Z0=0
+ L_EL=0
+ L_F0=0E6
+ PkZ=92096.9707
.ends XFL2006-104_freq

*======================================================================
* SPICE Model generated by Coilcraft
* Coilcraft Part Number : XFL2006-104
* Inductance = 100uH
*======================================================================
* Model Parameters:
*   Valid Frequency Range = 0.1MHz-20MHz
*   Ambient Temperature = 25 degC
*   Inductor Saturation Model
*   Use model for Time Domain simulations
*======================================================================
.subckt XFL2006-104_sat port1 port2 PARAMS: Cpar=1.393pF Ind=100uH
X1 port1 port2 Model1C PARAMS:
+ R1=180
+ R2=11.1
+ C= {Cpar}
+ K1=0.00036
+ K2=34
+ K3= {Ind}
+ K4=1.2
+ K5=0.00001
+ L=0.00010803
+ Is=0.2241
+ a=0.6779
+ L_Z0=0
+ L_EL=0
+ L_F0=0E6
+ PkZ=92096.9707
.ends XFL2006-104_sat

*======================================================================
* SPICE Model generated by Coilcraft
* Coilcraft Saturation Inductor Model
*======================================================================
* Model Parameters:
*   Valid Frequency Range Varies by Inductor
*   Ambient Temperature = 25 degC
*   Current Saturable Inductor Model
*======================================================================
.subckt Model1C Lin Lout PARAMS:
+ R1=1
+ R2=1
+ C=1
+ L=1
+ Is=1
+ a=1
+ PkZ=94.2 * {L} *1e6
R2 Lin N001 {R2}
R3 N001 Lout {PkZ}
C1 N001 N002 {C}
R1 N002 Lout {R1}
L1 N001 Lout flux={L*Is}*pwrs(tanh(pwrs((x/{Is}),{a})),{1/a})
.ends Model1C





*======================================================================
* SPICE Model generated by Coilcraft
* Coilcraft Power Inductor Model
*======================================================================
* Model Parameters:
*   Valid Frequency Range Varies by Inductor
*   Ambient Temperature = 25 degC
*   DC Bias Current = 0 A
*   Frequency Dependent Inductor Model
*======================================================================
.subckt Model1A Lin Lout PARAMS:
+ R1=1
+ R2=1
+ C=1
+ K1=1
+ K2=1
+ K3=1
+ K4=1
+ K5=1
R2 N001 Lin {R2}
R1 Lout N002 {R1}
C1 N002 N001 {C}
G_Rvar2 N001 Lout LAPLACE { V(N001, Lout) } {1/K2/(-S*S/4/PI^2)^0.25}
G_Rvar1 N001 N003 LAPLACE { V(N001, N003) } {1/K1/(-S*S/4/PI^2)^0.25}
G_Lvar N003 Lout  LAPLACE { V(N003, Lout) } {1/(S*1e-6*({K3*1e6}-({K4}*LOG({K5}*(sqrt(-S*S)/(2*pi))))))}
*This large resistance to ground has been added to prevent a floating node error
R3 N003 0 100Meg
.ends Model1A


.subckt Coilcraft_Inductor Lin Lout
R1 Lout Lin 100Meg
.ends Coilcraft_Inductor
