*======================================================================
* SPICE Model generated by Coilcraft
* Coilcraft Part Number : XFL2005-151
* Inductance = 150nH
*======================================================================
* Model Parameters:
*   Valid Frequency Range = 0.0001GHz-2GHz
*   Ambient Temperature = 25 degC
*   Inductor Frequency Model
*   Use model for Frequency Domain simulations
*======================================================================
.subckt XFL2005-151_freq port1 port2 PARAMS: Cpar=0.45pF Ind=0.15uH
X1 port1 port2 Model1A PARAMS:
+ R1=50
+ R2=0.07
+ C= {Cpar}
+ K1=0.000005
+ K2=0.019
+ K3= {Ind}
+ K4=0.001
+ K5=0.000006
+ L=1.61E-07
+ Is=2.7436
+ a=1.1549
+ L_Z0=0
+ L_EL=0
+ L_F0=0E6
+ PkZ=443.597365
.ends XFL2005-151_freq

*======================================================================
* SPICE Model generated by Coilcraft
* Coilcraft Part Number : XFL2005-151
* Inductance = 150nH
*======================================================================
* Model Parameters:
*   Valid Frequency Range = 0.0001GHz-2GHz
*   Ambient Temperature = 25 degC
*   Inductor Saturation Model
*   Use model for Time Domain simulations
*======================================================================
.subckt XFL2005-151_sat port1 port2 PARAMS: Cpar=0.425pF Ind=0.15uH
X1 port1 port2 Model1C PARAMS:
+ R1=50
+ R2=0.07
+ C= {Cpar}
+ K1=0.000005
+ K2=0.019
+ K3= {Ind}
+ K4=0.001
+ K5=0.000006
+ L=1.61E-07
+ Is=2.7436
+ a=1.1549
+ L_Z0=0
+ L_EL=0
+ L_F0=0E6
+ PkZ=443.597365
.ends XFL2005-151_sat

*======================================================================
* SPICE Model generated by Coilcraft
* Coilcraft Part Number : XFL2005-221
* Inductance = 220nH
*======================================================================
* Model Parameters:
*   Valid Frequency Range = 0.0001GHz-2GHz
*   Ambient Temperature = 25 degC
*   Inductor Frequency Model
*   Use model for Frequency Domain simulations
*======================================================================
.subckt XFL2005-221_freq port1 port2 PARAMS: Cpar=0.52pF Ind=0.22uH
X1 port1 port2 Model1A PARAMS:
+ R1=40
+ R2=0.111
+ C= {Cpar}
+ K1=0.000005
+ K2=0.039
+ K3= {Ind}
+ K4=0.001
+ K5=0.000006
+ L=2.156E-07
+ Is=2.6688
+ a=0.8836
+ L_Z0=0
+ L_EL=0
+ L_F0=0E6
+ PkZ=788.004426
.ends XFL2005-221_freq

*======================================================================
* SPICE Model generated by Coilcraft
* Coilcraft Part Number : XFL2005-221
* Inductance = 220nH
*======================================================================
* Model Parameters:
*   Valid Frequency Range = 0.0001GHz-2GHz
*   Ambient Temperature = 25 degC
*   Inductor Saturation Model
*   Use model for Time Domain simulations
*======================================================================
.subckt XFL2005-221_sat port1 port2 PARAMS: Cpar=0.501pF Ind=0.22uH
X1 port1 port2 Model1C PARAMS:
+ R1=40
+ R2=0.111
+ C= {Cpar}
+ K1=0.000005
+ K2=0.039
+ K3= {Ind}
+ K4=0.001
+ K5=0.000006
+ L=2.156E-07
+ Is=2.6688
+ a=0.8836
+ L_Z0=0
+ L_EL=0
+ L_F0=0E6
+ PkZ=788.004426
.ends XFL2005-221_sat

*======================================================================
* SPICE Model generated by Coilcraft
* Coilcraft Part Number : XFL2005-331
* Inductance = 330nH
*======================================================================
* Model Parameters:
*   Valid Frequency Range = 0.0001GHz-2GHz
*   Ambient Temperature = 25 degC
*   Inductor Frequency Model
*   Use model for Frequency Domain simulations
*======================================================================
.subckt XFL2005-331_freq port1 port2 PARAMS: Cpar=0.64pF Ind=0.33uH
X1 port1 port2 Model1A PARAMS:
+ R1=30
+ R2=0.144
+ C= {Cpar}
+ K1=0.000005
+ K2=0.058
+ K3= {Ind}
+ K4=0.002
+ K5=0.000006
+ L=3.521E-07
+ Is=2.1262
+ a=0.8412
+ L_Z0=0
+ L_EL=0
+ L_F0=0E6
+ PkZ=1024.04779
.ends XFL2005-331_freq

*======================================================================
* SPICE Model generated by Coilcraft
* Coilcraft Part Number : XFL2005-331
* Inductance = 330nH
*======================================================================
* Model Parameters:
*   Valid Frequency Range = 0.0001GHz-2GHz
*   Ambient Temperature = 25 degC
*   Inductor Saturation Model
*   Use model for Time Domain simulations
*======================================================================
.subckt XFL2005-331_sat port1 port2 PARAMS: Cpar=0.61pF Ind=0.33uH
X1 port1 port2 Model1C PARAMS:
+ R1=30
+ R2=0.144
+ C= {Cpar}
+ K1=0.000005
+ K2=0.058
+ K3= {Ind}
+ K4=0.002
+ K5=0.000006
+ L=3.521E-07
+ Is=2.1262
+ a=0.8412
+ L_Z0=0
+ L_EL=0
+ L_F0=0E6
+ PkZ=1024.04779
.ends XFL2005-331_sat

*======================================================================
* SPICE Model generated by Coilcraft
* Coilcraft Part Number : XFL2005-471
* Inductance = 470nH
*======================================================================
* Model Parameters:
*   Valid Frequency Range = 0.0001GHz-1GHz
*   Ambient Temperature = 25 degC
*   Inductor Frequency Model
*   Use model for Frequency Domain simulations
*======================================================================
.subckt XFL2005-471_freq port1 port2 PARAMS: Cpar=0.62pF Ind=0.47uH
X1 port1 port2 Model1A PARAMS:
+ R1=30
+ R2=0.177
+ C= {Cpar}
+ K1=0.000005
+ K2=0.086
+ K3= {Ind}
+ K4=0.003
+ K5=0.000009
+ L=4.605E-07
+ Is=2.0532
+ a=0.8257
+ L_Z0=0
+ L_EL=0
+ L_F0=0E6
+ PkZ=1408.12706
.ends XFL2005-471_freq

*======================================================================
* SPICE Model generated by Coilcraft
* Coilcraft Part Number : XFL2005-471
* Inductance = 470nH
*======================================================================
* Model Parameters:
*   Valid Frequency Range = 0.0001GHz-1GHz
*   Ambient Temperature = 25 degC
*   Inductor Saturation Model
*   Use model for Time Domain simulations
*======================================================================
.subckt XFL2005-471_sat port1 port2 PARAMS: Cpar=0.589pF Ind=0.47uH
X1 port1 port2 Model1C PARAMS:
+ R1=30
+ R2=0.177
+ C= {Cpar}
+ K1=0.000005
+ K2=0.086
+ K3= {Ind}
+ K4=0.003
+ K5=0.000009
+ L=4.605E-07
+ Is=2.0532
+ a=0.8257
+ L_Z0=0
+ L_EL=0
+ L_F0=0E6
+ PkZ=1408.12706
.ends XFL2005-471_sat

*======================================================================
* SPICE Model generated by Coilcraft
* Coilcraft Part Number : XFL2005-681
* Inductance = 680nH
*======================================================================
* Model Parameters:
*   Valid Frequency Range = 0.0001GHz-0.5GHz
*   Ambient Temperature = 25 degC
*   Inductor Frequency Model
*   Use model for Frequency Domain simulations
*======================================================================
.subckt XFL2005-681_freq port1 port2 PARAMS: Cpar=0.83pF Ind=0.68uH
X1 port1 port2 Model1A PARAMS:
+ R1=25
+ R2=0.215
+ C= {Cpar}
+ K1=0.00025
+ K2=0.12
+ K3= {Ind}
+ K4=0.005
+ K5=0.000006
+ L=6.456E-07
+ Is=1.9303
+ a=0.8082
+ L_Z0=0
+ L_EL=0
+ L_F0=0E6
+ PkZ=1661.89704
.ends XFL2005-681_freq

*======================================================================
* SPICE Model generated by Coilcraft
* Coilcraft Part Number : XFL2005-681
* Inductance = 680nH
*======================================================================
* Model Parameters:
*   Valid Frequency Range = 0.0001GHz-0.5GHz
*   Ambient Temperature = 25 degC
*   Inductor Saturation Model
*   Use model for Time Domain simulations
*======================================================================
.subckt XFL2005-681_sat port1 port2 PARAMS: Cpar=0.786pF Ind=0.68uH
X1 port1 port2 Model1C PARAMS:
+ R1=25
+ R2=0.215
+ C= {Cpar}
+ K1=0.00025
+ K2=0.12
+ K3= {Ind}
+ K4=0.005
+ K5=0.000006
+ L=6.456E-07
+ Is=1.9303
+ a=0.8082
+ L_Z0=0
+ L_EL=0
+ L_F0=0E6
+ PkZ=1661.89704
.ends XFL2005-681_sat

*======================================================================
* SPICE Model generated by Coilcraft
* Coilcraft Saturation Inductor Model
*======================================================================
* Model Parameters:
*   Valid Frequency Range Varies by Inductor
*   Ambient Temperature = 25 degC
*   Current Saturable Inductor Model
*======================================================================
.subckt Model1C Lin Lout PARAMS:
+ R1=1
+ R2=1
+ C=1
+ L=1
+ Is=1
+ a=1
+ PkZ=94.2 * {L} *1e6
R2 Lin N001 {R2}
R3 N001 Lout {PkZ}
C1 N001 N002 {C}
R1 N002 Lout {R1}
L1 N001 Lout flux={L*Is}*pwrs(tanh(pwrs((x/{Is}),{a})),{1/a})
.ends Model1C





*======================================================================
* SPICE Model generated by Coilcraft
* Coilcraft Power Inductor Model
*======================================================================
* Model Parameters:
*   Valid Frequency Range Varies by Inductor
*   Ambient Temperature = 25 degC
*   DC Bias Current = 0 A
*   Frequency Dependent Inductor Model
*======================================================================
.subckt Model1A Lin Lout PARAMS:
+ R1=1
+ R2=1
+ C=1
+ K1=1
+ K2=1
+ K3=1
+ K4=1
+ K5=1
R2 N001 Lin {R2}
R1 Lout N002 {R1}
C1 N002 N001 {C}
G_Rvar2 N001 Lout LAPLACE { V(N001, Lout) } {1/K2/(-S*S/4/PI^2)^0.25}
G_Rvar1 N001 N003 LAPLACE { V(N001, N003) } {1/K1/(-S*S/4/PI^2)^0.25}
G_Lvar N003 Lout  LAPLACE { V(N003, Lout) } {1/(S*1e-6*({K3*1e6}-({K4}*LOG({K5}*(sqrt(-S*S)/(2*pi))))))}
*This large resistance to ground has been added to prevent a floating node error
R3 N003 0 100Meg
.ends Model1A


.subckt Coilcraft_Inductor Lin Lout
R1 Lout Lin 100Meg
.ends Coilcraft_Inductor
