*======================================================================
* SPICE Model generated by Coilcraft
* Coilcraft Part Number : XFL2010-400
* Inductance = 40nH
*======================================================================
* Model Parameters:
*   Valid Frequency Range = 0.0001GHz-2GHz
*   Ambient Temperature = 25 degC
*   Inductor Frequency Model
*   Use model for Frequency Domain simulations
*======================================================================
.subckt XFL2010-400_freq port1 port2 PARAMS: Cpar=0.001pF Ind=0.04uH
X1 port1 port2 Model1A PARAMS:
+ R1=9.9
+ R2=0.016
+ C= {Cpar}
+ K1=0.00000227
+ K2=0.0034
+ K3= {Ind}
+ K4=0.000108
+ K5=0.000001
+ L=3.61E-08
+ Is=11.4804
+ a=1.571
+ L_Z0=0
+ L_EL=0
+ L_F0=0E6
+ PkZ=543.045844
.ends XFL2010-400_freq

*======================================================================
* SPICE Model generated by Coilcraft
* Coilcraft Part Number : XFL2010-400
* Inductance = 40nH
*======================================================================
* Model Parameters:
*   Valid Frequency Range = 0.0001GHz-2GHz
*   Ambient Temperature = 25 degC
*   Inductor Saturation Model
*   Use model for Time Domain simulations
*======================================================================
.subckt XFL2010-400_sat port1 port2 PARAMS: Cpar=0.001pF Ind=0.04uH
X1 port1 port2 Model1C PARAMS:
+ R1=9.9
+ R2=0.016
+ C= {Cpar}
+ K1=0.00000227
+ K2=0.0034
+ K3= {Ind}
+ K4=0.000108
+ K5=0.000001
+ L=3.61E-08
+ Is=11.4804
+ a=1.571
+ L_Z0=0
+ L_EL=0
+ L_F0=0E6
+ PkZ=543.045844
.ends XFL2010-400_sat

*======================================================================
* SPICE Model generated by Coilcraft
* Coilcraft Part Number : XFL2010-121
* Inductance = 120nH
*======================================================================
* Model Parameters:
*   Valid Frequency Range = 0.0001GHz-2GHz
*   Ambient Temperature = 25 degC
*   Inductor Frequency Model
*   Use model for Frequency Domain simulations
*======================================================================
.subckt XFL2010-121_freq port1 port2 PARAMS: Cpar=0.6pF Ind=0.12uH
X1 port1 port2 Model1A PARAMS:
+ R1=20
+ R2=0.022
+ C= {Cpar}
+ K1=0.000001
+ K2=0.012
+ K3= {Ind}
+ K4=0.000001
+ K5=0.000001
+ L=1.128E-07
+ Is=6.785
+ a=1.3405
+ L_Z0=0
+ L_EL=0
+ L_F0=0E6
+ PkZ=283.985137
.ends XFL2010-121_freq

*======================================================================
* SPICE Model generated by Coilcraft
* Coilcraft Part Number : XFL2010-121
* Inductance = 120nH
*======================================================================
* Model Parameters:
*   Valid Frequency Range = 0.0001GHz-2GHz
*   Ambient Temperature = 25 degC
*   Inductor Saturation Model
*   Use model for Time Domain simulations
*======================================================================
.subckt XFL2010-121_sat port1 port2 PARAMS: Cpar=0.6pF Ind=0.12uH
X1 port1 port2 Model1C PARAMS:
+ R1=20
+ R2=0.022
+ C= {Cpar}
+ K1=0.000001
+ K2=0.012
+ K3= {Ind}
+ K4=0.000001
+ K5=0.000001
+ L=1.128E-07
+ Is=6.785
+ a=1.3405
+ L_Z0=0
+ L_EL=0
+ L_F0=0E6
+ PkZ=283.985137
.ends XFL2010-121_sat

*======================================================================
* SPICE Model generated by Coilcraft
* Coilcraft Part Number : XFL2010-221
* Inductance = 220nH
*======================================================================
* Model Parameters:
*   Valid Frequency Range = 0.0001GHz-1GHz
*   Ambient Temperature = 25 degC
*   Inductor Frequency Model
*   Use model for Frequency Domain simulations
*======================================================================
.subckt XFL2010-221_freq port1 port2 PARAMS: Cpar=0.87pF Ind=0.22uH
X1 port1 port2 Model1A PARAMS:
+ R1=8
+ R2=0.025
+ C= {Cpar}
+ K1=0.000001
+ K2=0.025
+ K3= {Ind}
+ K4=0.000001
+ K5=0.000001
+ L=2.067E-07
+ Is=5.4785
+ a=1.2204
+ L_Z0=0
+ L_EL=0
+ L_F0=0E6
+ PkZ=469.757945
.ends XFL2010-221_freq

*======================================================================
* SPICE Model generated by Coilcraft
* Coilcraft Part Number : XFL2010-221
* Inductance = 220nH
*======================================================================
* Model Parameters:
*   Valid Frequency Range = 0.0001GHz-1GHz
*   Ambient Temperature = 25 degC
*   Inductor Saturation Model
*   Use model for Time Domain simulations
*======================================================================
.subckt XFL2010-221_sat port1 port2 PARAMS: Cpar=0.87pF Ind=0.22uH
X1 port1 port2 Model1C PARAMS:
+ R1=8
+ R2=0.025
+ C= {Cpar}
+ K1=0.000001
+ K2=0.025
+ K3= {Ind}
+ K4=0.000001
+ K5=0.000001
+ L=2.067E-07
+ Is=5.4785
+ a=1.2204
+ L_Z0=0
+ L_EL=0
+ L_F0=0E6
+ PkZ=469.757945
.ends XFL2010-221_sat

*======================================================================
* SPICE Model generated by Coilcraft
* Coilcraft Part Number : XFL2010-381
* Inductance = 380nH
*======================================================================
* Model Parameters:
*   Valid Frequency Range = 0.0001GHz-1GHz
*   Ambient Temperature = 25 degC
*   Inductor Frequency Model
*   Use model for Frequency Domain simulations
*======================================================================
.subckt XFL2010-381_freq port1 port2 PARAMS: Cpar=1pF Ind=0.38uH
X1 port1 port2 Model1A PARAMS:
+ R1=13
+ R2=0.033
+ C= {Cpar}
+ K1=0.000001
+ K2=0.052
+ K3= {Ind}
+ K4=0.000001
+ K5=0.000001
+ L=3.486E-07
+ Is=4.2626
+ a=1.3158
+ L_Z0=0
+ L_EL=0
+ L_F0=0E6
+ PkZ=812.33845
.ends XFL2010-381_freq

*======================================================================
* SPICE Model generated by Coilcraft
* Coilcraft Part Number : XFL2010-381
* Inductance = 380nH
*======================================================================
* Model Parameters:
*   Valid Frequency Range = 0.0001GHz-1GHz
*   Ambient Temperature = 25 degC
*   Inductor Saturation Model
*   Use model for Time Domain simulations
*======================================================================
.subckt XFL2010-381_sat port1 port2 PARAMS: Cpar=1pF Ind=0.38uH
X1 port1 port2 Model1C PARAMS:
+ R1=13
+ R2=0.033
+ C= {Cpar}
+ K1=0.000001
+ K2=0.052
+ K3= {Ind}
+ K4=0.000001
+ K5=0.000001
+ L=3.486E-07
+ Is=4.2626
+ a=1.3158
+ L_Z0=0
+ L_EL=0
+ L_F0=0E6
+ PkZ=812.33845
.ends XFL2010-381_sat

*======================================================================
* SPICE Model generated by Coilcraft
* Coilcraft Part Number : XFL2010-601
* Inductance = 600nH
*======================================================================
* Model Parameters:
*   Valid Frequency Range = 0.0001GHz-1GHz
*   Ambient Temperature = 25 degC
*   Inductor Frequency Model
*   Use model for Frequency Domain simulations
*======================================================================
.subckt XFL2010-601_freq port1 port2 PARAMS: Cpar=1.1pF Ind=0.6uH
X1 port1 port2 Model1A PARAMS:
+ R1=17
+ R2=0.054
+ C= {Cpar}
+ K1=0.000001
+ K2=0.09
+ K3= {Ind}
+ K4=0.000001
+ K5=0.000001
+ L=5.728E-07
+ Is=3.4823
+ a=1.1413
+ L_Z0=0
+ L_EL=0
+ L_F0=0E6
+ PkZ=1212.15251
.ends XFL2010-601_freq

*======================================================================
* SPICE Model generated by Coilcraft
* Coilcraft Part Number : XFL2010-601
* Inductance = 600nH
*======================================================================
* Model Parameters:
*   Valid Frequency Range = 0.0001GHz-1GHz
*   Ambient Temperature = 25 degC
*   Inductor Saturation Model
*   Use model for Time Domain simulations
*======================================================================
.subckt XFL2010-601_sat port1 port2 PARAMS: Cpar=1.1pF Ind=0.6uH
X1 port1 port2 Model1C PARAMS:
+ R1=17
+ R2=0.054
+ C= {Cpar}
+ K1=0.000001
+ K2=0.09
+ K3= {Ind}
+ K4=0.000001
+ K5=0.000001
+ L=5.728E-07
+ Is=3.4823
+ a=1.1413
+ L_Z0=0
+ L_EL=0
+ L_F0=0E6
+ PkZ=1212.15251
.ends XFL2010-601_sat

*======================================================================
* SPICE Model generated by Coilcraft
* Coilcraft Part Number : XFL2010-821
* Inductance = 820nH
*======================================================================
* Model Parameters:
*   Valid Frequency Range = 0.0001GHz-1GHz
*   Ambient Temperature = 25 degC
*   Inductor Frequency Model
*   Use model for Frequency Domain simulations
*======================================================================
.subckt XFL2010-821_freq port1 port2 PARAMS: Cpar=1.2pF Ind=0.82uH
X1 port1 port2 Model1A PARAMS:
+ R1=17
+ R2=0.061
+ C= {Cpar}
+ K1=0.000001
+ K2=0.1
+ K3= {Ind}
+ K4=0.000001
+ K5=0.000001
+ L=7.523E-07
+ Is=3.0563
+ a=0.9939
+ L_Z0=0
+ L_EL=0
+ L_F0=0E6
+ PkZ=1228.01801
.ends XFL2010-821_freq

*======================================================================
* SPICE Model generated by Coilcraft
* Coilcraft Part Number : XFL2010-821
* Inductance = 820nH
*======================================================================
* Model Parameters:
*   Valid Frequency Range = 0.0001GHz-1GHz
*   Ambient Temperature = 25 degC
*   Inductor Saturation Model
*   Use model for Time Domain simulations
*======================================================================
.subckt XFL2010-821_sat port1 port2 PARAMS: Cpar=1.2pF Ind=0.82uH
X1 port1 port2 Model1C PARAMS:
+ R1=17
+ R2=0.061
+ C= {Cpar}
+ K1=0.000001
+ K2=0.1
+ K3= {Ind}
+ K4=0.000001
+ K5=0.000001
+ L=7.523E-07
+ Is=3.0563
+ a=0.9939
+ L_Z0=0
+ L_EL=0
+ L_F0=0E6
+ PkZ=1228.01801
.ends XFL2010-821_sat

*======================================================================
* SPICE Model generated by Coilcraft
* Coilcraft Part Number : XFL2010-102
* Inductance = 1uH
*======================================================================
* Model Parameters:
*   Valid Frequency Range = 0.0001GHz-0.5GHz
*   Ambient Temperature = 25 degC
*   Inductor Frequency Model
*   Use model for Frequency Domain simulations
*======================================================================
.subckt XFL2010-102_freq port1 port2 PARAMS: Cpar=1.4pF Ind=1uH
X1 port1 port2 Model1A PARAMS:
+ R1=20
+ R2=0.083
+ C= {Cpar}
+ K1=0.000001
+ K2=0.16
+ K3= {Ind}
+ K4=0.000001
+ K5=0.000001
+ L=1.1271E-06
+ Is=2.4164
+ a=1.2071
+ L_Z0=0
+ L_EL=0
+ L_F0=0E6
+ PkZ=1764.08523
.ends XFL2010-102_freq

*======================================================================
* SPICE Model generated by Coilcraft
* Coilcraft Part Number : XFL2010-102
* Inductance = 1uH
*======================================================================
* Model Parameters:
*   Valid Frequency Range = 0.0001GHz-0.5GHz
*   Ambient Temperature = 25 degC
*   Inductor Saturation Model
*   Use model for Time Domain simulations
*======================================================================
.subckt XFL2010-102_sat port1 port2 PARAMS: Cpar=1.4pF Ind=1uH
X1 port1 port2 Model1C PARAMS:
+ R1=20
+ R2=0.083
+ C= {Cpar}
+ K1=0.000001
+ K2=0.16
+ K3= {Ind}
+ K4=0.000001
+ K5=0.000001
+ L=1.1271E-06
+ Is=2.4164
+ a=1.2071
+ L_Z0=0
+ L_EL=0
+ L_F0=0E6
+ PkZ=1764.08523
.ends XFL2010-102_sat

*======================================================================
* SPICE Model generated by Coilcraft
* Coilcraft Part Number : XFL2010-152
* Inductance = 1.5uH
*======================================================================
* Model Parameters:
*   Valid Frequency Range = 0.0001GHz-0.5GHz
*   Ambient Temperature = 25 degC
*   Inductor Frequency Model
*   Use model for Frequency Domain simulations
*======================================================================
.subckt XFL2010-152_freq port1 port2 PARAMS: Cpar=1.3pF Ind=1.5uH
X1 port1 port2 Model1A PARAMS:
+ R1=10
+ R2=0.115
+ C= {Cpar}
+ K1=0.000001
+ K2=0.26
+ K3= {Ind}
+ K4=0.000001
+ K5=0.000001
+ L=1.4939E-06
+ Is=2.2752
+ a=1.0049
+ L_Z0=0
+ L_EL=0
+ L_F0=0E6
+ PkZ=2710.56412
.ends XFL2010-152_freq

*======================================================================
* SPICE Model generated by Coilcraft
* Coilcraft Part Number : XFL2010-152
* Inductance = 1.5uH
*======================================================================
* Model Parameters:
*   Valid Frequency Range = 0.0001GHz-0.5GHz
*   Ambient Temperature = 25 degC
*   Inductor Saturation Model
*   Use model for Time Domain simulations
*======================================================================
.subckt XFL2010-152_sat port1 port2 PARAMS: Cpar=1.3pF Ind=1.5uH
X1 port1 port2 Model1C PARAMS:
+ R1=10
+ R2=0.115
+ C= {Cpar}
+ K1=0.000001
+ K2=0.26
+ K3= {Ind}
+ K4=0.000001
+ K5=0.000001
+ L=1.4939E-06
+ Is=2.2752
+ a=1.0049
+ L_Z0=0
+ L_EL=0
+ L_F0=0E6
+ PkZ=2710.56412
.ends XFL2010-152_sat

*======================================================================
* SPICE Model generated by Coilcraft
* Coilcraft Part Number : XFL2010-222
* Inductance = 2.2uH
*======================================================================
* Model Parameters:
*   Valid Frequency Range = 0.0001GHz-0.5GHz
*   Ambient Temperature = 25 degC
*   Inductor Frequency Model
*   Use model for Frequency Domain simulations
*======================================================================
.subckt XFL2010-222_freq port1 port2 PARAMS: Cpar=1.3pF Ind=2.2uH
X1 port1 port2 Model1A PARAMS:
+ R1=14
+ R2=0.156
+ C= {Cpar}
+ K1=0.000001
+ K2=0.37
+ K3= {Ind}
+ K4=0.000001
+ K5=0.000001
+ L=2.1768E-06
+ Is=1.8604
+ a=1.1576
+ L_Z0=0
+ L_EL=0
+ L_F0=0E6
+ PkZ=3485.97662
.ends XFL2010-222_freq

*======================================================================
* SPICE Model generated by Coilcraft
* Coilcraft Part Number : XFL2010-222
* Inductance = 2.2uH
*======================================================================
* Model Parameters:
*   Valid Frequency Range = 0.0001GHz-0.5GHz
*   Ambient Temperature = 25 degC
*   Inductor Saturation Model
*   Use model for Time Domain simulations
*======================================================================
.subckt XFL2010-222_sat port1 port2 PARAMS: Cpar=1.3pF Ind=2.2uH
X1 port1 port2 Model1C PARAMS:
+ R1=14
+ R2=0.156
+ C= {Cpar}
+ K1=0.000001
+ K2=0.37
+ K3= {Ind}
+ K4=0.000001
+ K5=0.000001
+ L=2.1768E-06
+ Is=1.8604
+ a=1.1576
+ L_Z0=0
+ L_EL=0
+ L_F0=0E6
+ PkZ=3485.97662
.ends XFL2010-222_sat

*======================================================================
* SPICE Model generated by Coilcraft
* Coilcraft Part Number : XFL2010-332
* Inductance = 3.3uH
*======================================================================
* Model Parameters:
*   Valid Frequency Range = 0.0001GHz-0.5GHz
*   Ambient Temperature = 25 degC
*   Inductor Frequency Model
*   Use model for Frequency Domain simulations
*======================================================================
.subckt XFL2010-332_freq port1 port2 PARAMS: Cpar=1.82pF Ind=3.3uH
X1 port1 port2 Model1A PARAMS:
+ R1=9
+ R2=0.213
+ C= {Cpar}
+ K1=0.000001
+ K2=0.55
+ K3= {Ind}
+ K4=0.0309
+ K5=0.000001
+ L=3.2745E-06
+ Is=1.4521
+ a=1.1952
+ L_Z0=0
+ L_EL=0
+ L_F0=0E6
+ PkZ=4375.6113
.ends XFL2010-332_freq

*======================================================================
* SPICE Model generated by Coilcraft
* Coilcraft Part Number : XFL2010-332
* Inductance = 3.3uH
*======================================================================
* Model Parameters:
*   Valid Frequency Range = 0.0001GHz-0.5GHz
*   Ambient Temperature = 25 degC
*   Inductor Saturation Model
*   Use model for Time Domain simulations
*======================================================================
.subckt XFL2010-332_sat port1 port2 PARAMS: Cpar=1.749pF Ind=3.3uH
X1 port1 port2 Model1C PARAMS:
+ R1=9
+ R2=0.213
+ C= {Cpar}
+ K1=0.000001
+ K2=0.55
+ K3= {Ind}
+ K4=0.0309
+ K5=0.000001
+ L=3.2745E-06
+ Is=1.4521
+ a=1.1952
+ L_Z0=0
+ L_EL=0
+ L_F0=0E6
+ PkZ=4375.6113
.ends XFL2010-332_sat

*======================================================================
* SPICE Model generated by Coilcraft
* Coilcraft Part Number : XFL2010-472
* Inductance = 4.7uH
*======================================================================
* Model Parameters:
*   Valid Frequency Range = 0.0001GHz-0.5GHz
*   Ambient Temperature = 25 degC
*   Inductor Frequency Model
*   Use model for Frequency Domain simulations
*======================================================================
.subckt XFL2010-472_freq port1 port2 PARAMS: Cpar=1.6pF Ind=4.7uH
X1 port1 port2 Model1A PARAMS:
+ R1=13
+ R2=0.32
+ C= {Cpar}
+ K1=0.000001
+ K2=0.77
+ K3= {Ind}
+ K4=0.000001
+ K5=0.000001
+ L=4.4627E-06
+ Is=1.1575
+ a=1.1584
+ L_Z0=0
+ L_EL=0
+ L_F0=0E6
+ PkZ=5717.87022
.ends XFL2010-472_freq

*======================================================================
* SPICE Model generated by Coilcraft
* Coilcraft Part Number : XFL2010-472
* Inductance = 4.7uH
*======================================================================
* Model Parameters:
*   Valid Frequency Range = 0.0001GHz-0.5GHz
*   Ambient Temperature = 25 degC
*   Inductor Saturation Model
*   Use model for Time Domain simulations
*======================================================================
.subckt XFL2010-472_sat port1 port2 PARAMS: Cpar=1.6pF Ind=4.7uH
X1 port1 port2 Model1C PARAMS:
+ R1=13
+ R2=0.32
+ C= {Cpar}
+ K1=0.000001
+ K2=0.77
+ K3= {Ind}
+ K4=0.000001
+ K5=0.000001
+ L=4.4627E-06
+ Is=1.1575
+ a=1.1584
+ L_Z0=0
+ L_EL=0
+ L_F0=0E6
+ PkZ=5717.87022
.ends XFL2010-472_sat

*======================================================================
* SPICE Model generated by Coilcraft
* Coilcraft Part Number : XFL2010-682
* Inductance = 6.8uH
*======================================================================
* Model Parameters:
*   Valid Frequency Range = 0.0001GHz-0.5GHz
*   Ambient Temperature = 25 degC
*   Inductor Frequency Model
*   Use model for Frequency Domain simulations
*======================================================================
.subckt XFL2010-682_freq port1 port2 PARAMS: Cpar=1.8pF Ind=6.8uH
X1 port1 port2 Model1A PARAMS:
+ R1=12
+ R2=0.405
+ C= {Cpar}
+ K1=0.000001
+ K2=1
+ K3= {Ind}
+ K4=0.000001
+ K5=0.000001
+ L=6.3729E-06
+ Is=1.047
+ a=1.2312
+ L_Z0=0
+ L_EL=0
+ L_F0=0E6
+ PkZ=6603.59422
.ends XFL2010-682_freq

*======================================================================
* SPICE Model generated by Coilcraft
* Coilcraft Part Number : XFL2010-682
* Inductance = 6.8uH
*======================================================================
* Model Parameters:
*   Valid Frequency Range = 0.0001GHz-0.5GHz
*   Ambient Temperature = 25 degC
*   Inductor Saturation Model
*   Use model for Time Domain simulations
*======================================================================
.subckt XFL2010-682_sat port1 port2 PARAMS: Cpar=1.8pF Ind=6.8uH
X1 port1 port2 Model1C PARAMS:
+ R1=12
+ R2=0.405
+ C= {Cpar}
+ K1=0.000001
+ K2=1
+ K3= {Ind}
+ K4=0.000001
+ K5=0.000001
+ L=6.3729E-06
+ Is=1.047
+ a=1.2312
+ L_Z0=0
+ L_EL=0
+ L_F0=0E6
+ PkZ=6603.59422
.ends XFL2010-682_sat

*======================================================================
* SPICE Model generated by Coilcraft
* Coilcraft Part Number : XFL2010-822
* Inductance = 8.2uH
*======================================================================
* Model Parameters:
*   Valid Frequency Range = 0.0001GHz-0.5GHz
*   Ambient Temperature = 25 degC
*   Inductor Frequency Model
*   Use model for Frequency Domain simulations
*======================================================================
.subckt XFL2010-822_freq port1 port2 PARAMS: Cpar=1.9pF Ind=8.2uH
X1 port1 port2 Model1A PARAMS:
+ R1=15
+ R2=0.511
+ C= {Cpar}
+ K1=0.000001
+ K2=1.3
+ K3= {Ind}
+ K4=0.000001
+ K5=0.000001
+ L=8.8011E-06
+ Is=0.8289
+ a=1.4933
+ L_Z0=0
+ L_EL=0
+ L_F0=0E6
+ PkZ=8025.08967
.ends XFL2010-822_freq

*======================================================================
* SPICE Model generated by Coilcraft
* Coilcraft Part Number : XFL2010-822
* Inductance = 8.2uH
*======================================================================
* Model Parameters:
*   Valid Frequency Range = 0.0001GHz-0.5GHz
*   Ambient Temperature = 25 degC
*   Inductor Saturation Model
*   Use model for Time Domain simulations
*======================================================================
.subckt XFL2010-822_sat port1 port2 PARAMS: Cpar=1.9pF Ind=8.2uH
X1 port1 port2 Model1C PARAMS:
+ R1=15
+ R2=0.511
+ C= {Cpar}
+ K1=0.000001
+ K2=1.3
+ K3= {Ind}
+ K4=0.000001
+ K5=0.000001
+ L=8.8011E-06
+ Is=0.8289
+ a=1.4933
+ L_Z0=0
+ L_EL=0
+ L_F0=0E6
+ PkZ=8025.08967
.ends XFL2010-822_sat

*======================================================================
* SPICE Model generated by Coilcraft
* Coilcraft Part Number : XFL2010-103
* Inductance = 10uH
*======================================================================
* Model Parameters:
*   Valid Frequency Range = 0.0001GHz-0.1GHz
*   Ambient Temperature = 25 degC
*   Inductor Frequency Model
*   Use model for Frequency Domain simulations
*======================================================================
.subckt XFL2010-103_freq port1 port2 PARAMS: Cpar=1.9pF Ind=10uH
X1 port1 port2 Model1A PARAMS:
+ R1=22
+ R2=0.595
+ C= {Cpar}
+ K1=0.000001
+ K2=1.7
+ K3= {Ind}
+ K4=0.000001
+ K5=0.000001
+ L=9.1128E-06
+ Is=0.8522
+ a=1.081
+ L_Z0=0
+ L_EL=0
+ L_F0=0E6
+ PkZ=9849.96875
.ends XFL2010-103_freq

*======================================================================
* SPICE Model generated by Coilcraft
* Coilcraft Part Number : XFL2010-103
* Inductance = 10uH
*======================================================================
* Model Parameters:
*   Valid Frequency Range = 0.0001GHz-0.1GHz
*   Ambient Temperature = 25 degC
*   Inductor Saturation Model
*   Use model for Time Domain simulations
*======================================================================
.subckt XFL2010-103_sat port1 port2 PARAMS: Cpar=1.9pF Ind=10uH
X1 port1 port2 Model1C PARAMS:
+ R1=22
+ R2=0.595
+ C= {Cpar}
+ K1=0.000001
+ K2=1.7
+ K3= {Ind}
+ K4=0.000001
+ K5=0.000001
+ L=9.1128E-06
+ Is=0.8522
+ a=1.081
+ L_Z0=0
+ L_EL=0
+ L_F0=0E6
+ PkZ=9849.96875
.ends XFL2010-103_sat

*======================================================================
* SPICE Model generated by Coilcraft
* Coilcraft Part Number : XFL2010-183
* Inductance = 18uH
*======================================================================
* Model Parameters:
*   Valid Frequency Range = 0.0001GHz-0.1GHz
*   Ambient Temperature = 25 degC
*   Inductor Frequency Model
*   Use model for Frequency Domain simulations
*======================================================================
.subckt XFL2010-183_freq port1 port2 PARAMS: Cpar=1.7pF Ind=18uH
X1 port1 port2 Model1A PARAMS:
+ R1=40
+ R2=1.17
+ C= {Cpar}
+ K1=0.000001
+ K2=3.1
+ K3= {Ind}
+ K4=0.000001
+ K5=0.000001
+ L=1.7803E-05
+ Is=0.589
+ a=1.4016
+ L_Z0=0
+ L_EL=0
+ L_F0=0E6
+ PkZ=15646.4453
.ends XFL2010-183_freq

*======================================================================
* SPICE Model generated by Coilcraft
* Coilcraft Part Number : XFL2010-183
* Inductance = 18uH
*======================================================================
* Model Parameters:
*   Valid Frequency Range = 0.0001GHz-0.1GHz
*   Ambient Temperature = 25 degC
*   Inductor Saturation Model
*   Use model for Time Domain simulations
*======================================================================
.subckt XFL2010-183_sat port1 port2 PARAMS: Cpar=1.7pF Ind=18uH
X1 port1 port2 Model1C PARAMS:
+ R1=40
+ R2=1.17
+ C= {Cpar}
+ K1=0.000001
+ K2=3.1
+ K3= {Ind}
+ K4=0.000001
+ K5=0.000001
+ L=1.7803E-05
+ Is=0.589
+ a=1.4016
+ L_Z0=0
+ L_EL=0
+ L_F0=0E6
+ PkZ=15646.4453
.ends XFL2010-183_sat

*======================================================================
* SPICE Model generated by Coilcraft
* Coilcraft Part Number : XFL2010-223
* Inductance = 22uH
*======================================================================
* Model Parameters:
*   Valid Frequency Range = 0.0001GHz-0.05GHz
*   Ambient Temperature = 25 degC
*   Inductor Frequency Model
*   Use model for Frequency Domain simulations
*======================================================================
.subckt XFL2010-223_freq port1 port2 PARAMS: Cpar=2pF Ind=22uH
X1 port1 port2 Model1A PARAMS:
+ R1=95
+ R2=1.5
+ C= {Cpar}
+ K1=0.000001
+ K2=3.7
+ K3= {Ind}
+ K4=0.000001
+ K5=0.000001
+ L=2.2778E-05
+ Is=0.5096
+ a=1.155
+ L_Z0=0
+ L_EL=0
+ L_F0=0E6
+ PkZ=15673.92
.ends XFL2010-223_freq

*======================================================================
* SPICE Model generated by Coilcraft
* Coilcraft Part Number : XFL2010-223
* Inductance = 22uH
*======================================================================
* Model Parameters:
*   Valid Frequency Range = 0.0001GHz-0.05GHz
*   Ambient Temperature = 25 degC
*   Inductor Saturation Model
*   Use model for Time Domain simulations
*======================================================================
.subckt XFL2010-223_sat port1 port2 PARAMS: Cpar=2pF Ind=22uH
X1 port1 port2 Model1C PARAMS:
+ R1=95
+ R2=1.5
+ C= {Cpar}
+ K1=0.000001
+ K2=3.7
+ K3= {Ind}
+ K4=0.000001
+ K5=0.000001
+ L=2.2778E-05
+ Is=0.5096
+ a=1.155
+ L_Z0=0
+ L_EL=0
+ L_F0=0E6
+ PkZ=15673.92
.ends XFL2010-223_sat

*======================================================================
* SPICE Model generated by Coilcraft
* Coilcraft Part Number : XFL2010-333
* Inductance = 33uH
*======================================================================
* Model Parameters:
*   Valid Frequency Range = 0.0001GHz-0.05GHz
*   Ambient Temperature = 25 degC
*   Inductor Frequency Model
*   Use model for Frequency Domain simulations
*======================================================================
.subckt XFL2010-333_freq port1 port2 PARAMS: Cpar=1.9pF Ind=33uH
X1 port1 port2 Model1A PARAMS:
+ R1=90
+ R2=2.14
+ C= {Cpar}
+ K1=0.000001
+ K2=5.5
+ K3= {Ind}
+ K4=0.000001
+ K5=0.000001
+ L=3.0407E-05
+ Is=0.4072
+ a=1.2657
+ L_Z0=0
+ L_EL=0
+ L_F0=0E6
+ PkZ=21867.3417
.ends XFL2010-333_freq

*======================================================================
* SPICE Model generated by Coilcraft
* Coilcraft Part Number : XFL2010-333
* Inductance = 33uH
*======================================================================
* Model Parameters:
*   Valid Frequency Range = 0.0001GHz-0.05GHz
*   Ambient Temperature = 25 degC
*   Inductor Saturation Model
*   Use model for Time Domain simulations
*======================================================================
.subckt XFL2010-333_sat port1 port2 PARAMS: Cpar=1.9pF Ind=33uH
X1 port1 port2 Model1C PARAMS:
+ R1=90
+ R2=2.14
+ C= {Cpar}
+ K1=0.000001
+ K2=5.5
+ K3= {Ind}
+ K4=0.000001
+ K5=0.000001
+ L=3.0407E-05
+ Is=0.4072
+ a=1.2657
+ L_Z0=0
+ L_EL=0
+ L_F0=0E6
+ PkZ=21867.3417
.ends XFL2010-333_sat

*======================================================================
* SPICE Model generated by Coilcraft
* Coilcraft Part Number : XFL2010-473
* Inductance = 47uH
*======================================================================
* Model Parameters:
*   Valid Frequency Range = 0.0001GHz-0.05GHz
*   Ambient Temperature = 25 degC
*   Inductor Frequency Model
*   Use model for Frequency Domain simulations
*======================================================================
.subckt XFL2010-473_freq port1 port2 PARAMS: Cpar=2.1pF Ind=47uH
X1 port1 port2 Model1A PARAMS:
+ R1=43
+ R2=2.91
+ C= {Cpar}
+ K1=0.000001
+ K2=8.5
+ K3= {Ind}
+ K4=0.000001
+ K5=0.000001
+ L=4.1404E-05
+ Is=0.353
+ a=1.2292
+ L_Z0=0
+ L_EL=0
+ L_F0=0E6
+ PkZ=31936.7602
.ends XFL2010-473_freq

*======================================================================
* SPICE Model generated by Coilcraft
* Coilcraft Part Number : XFL2010-473
* Inductance = 47uH
*======================================================================
* Model Parameters:
*   Valid Frequency Range = 0.0001GHz-0.05GHz
*   Ambient Temperature = 25 degC
*   Inductor Saturation Model
*   Use model for Time Domain simulations
*======================================================================
.subckt XFL2010-473_sat port1 port2 PARAMS: Cpar=2.1pF Ind=47uH
X1 port1 port2 Model1C PARAMS:
+ R1=43
+ R2=2.91
+ C= {Cpar}
+ K1=0.000001
+ K2=8.5
+ K3= {Ind}
+ K4=0.000001
+ K5=0.000001
+ L=4.1404E-05
+ Is=0.353
+ a=1.2292
+ L_Z0=0
+ L_EL=0
+ L_F0=0E6
+ PkZ=31936.7602
.ends XFL2010-473_sat

*======================================================================
* SPICE Model generated by Coilcraft
* Coilcraft Part Number : XFL2010-563
* Inductance = 56uH
*======================================================================
* Model Parameters:
*   Valid Frequency Range = 0.0001GHz-0.05GHz
*   Ambient Temperature = 25 degC
*   Inductor Frequency Model
*   Use model for Frequency Domain simulations
*======================================================================
.subckt XFL2010-563_freq port1 port2 PARAMS: Cpar=2.2pF Ind=56uH
X1 port1 port2 Model1A PARAMS:
+ R1=30
+ R2=3.66
+ C= {Cpar}
+ K1=0.000001
+ K2=12.6
+ K3= {Ind}
+ K4=0.000001
+ K5=0.000001
+ L=5.4374E-05
+ Is=0.3246
+ a=1.1419
+ L_Z0=0
+ L_EL=0
+ L_F0=0E6
+ PkZ=45175.3644