*======================================================================
* SPICE Model generated by Coilcraft
* Coilcraft Part Number : XFL3012-331
* Inductance = 330nH
*======================================================================
* Model Parameters:
*   Valid Frequency Range = 0.1MHz-1000MHz
*   Ambient Temperature = 25 degC
*   Inductor Frequency Model
*   Use model for Frequency Domain simulations
*======================================================================
.subckt XFL3012-331_freq port1 port2 PARAMS: Cpar=0.97pF Ind=0.33uH
X1 port1 port2 Model1A PARAMS:
+ R1=50
+ R2=0.023
+ C= {Cpar}
+ K1=0.000001
+ K2=0.038
+ K3= {Ind}
+ K4=0.0014
+ K5=0.0000004
+ L=3.289E-07
+ Is=4.2529
+ a=1.8088
+ L_Z0=0
+ L_EL=0
+ L_F0=0E6
+ PkZ=584.799137
.ends XFL3012-331_freq

*======================================================================
* SPICE Model generated by Coilcraft
* Coilcraft Part Number : XFL3012-331
* Inductance = 330nH
*======================================================================
* Model Parameters:
*   Valid Frequency Range = 0.1MHz-1000MHz
*   Ambient Temperature = 25 degC
*   Inductor Saturation Model
*   Use model for Time Domain simulations
*======================================================================
.subckt XFL3012-331_sat port1 port2 PARAMS: Cpar=0.951pF Ind=0.33uH
X1 port1 port2 Model1C PARAMS:
+ R1=50
+ R2=0.023
+ C= {Cpar}
+ K1=0.000001
+ K2=0.038
+ K3= {Ind}
+ K4=0.0014
+ K5=0.0000004
+ L=3.289E-07
+ Is=4.2529
+ a=1.8088
+ L_Z0=0
+ L_EL=0
+ L_F0=0E6
+ PkZ=584.799137
.ends XFL3012-331_sat

*======================================================================
* SPICE Model generated by Coilcraft
* Coilcraft Part Number : XFL3012-561
* Inductance = 560nH
*======================================================================
* Model Parameters:
*   Valid Frequency Range = 0.1MHz-1000MHz
*   Ambient Temperature = 25 degC
*   Inductor Frequency Model
*   Use model for Frequency Domain simulations
*======================================================================
.subckt XFL3012-561_freq port1 port2 PARAMS: Cpar=1.2pF Ind=0.56uH
X1 port1 port2 Model1A PARAMS:
+ R1=35
+ R2=0.028
+ C= {Cpar}
+ K1=0.000001
+ K2=0.065
+ K3= {Ind}
+ K4=0.01
+ K5=0.00000084
+ L=5.177E-07
+ Is=3.7939
+ a=1.5323
+ L_Z0=0
+ L_EL=0
+ L_F0=0E6
+ PkZ=861.77933
.ends XFL3012-561_freq

*======================================================================
* SPICE Model generated by Coilcraft
* Coilcraft Part Number : XFL3012-561
* Inductance = 560nH
*======================================================================
* Model Parameters:
*   Valid Frequency Range = 0.1MHz-1000MHz
*   Ambient Temperature = 25 degC
*   Inductor Saturation Model
*   Use model for Time Domain simulations
*======================================================================
.subckt XFL3012-561_sat port1 port2 PARAMS: Cpar=1.091pF Ind=0.56uH
X1 port1 port2 Model1C PARAMS:
+ R1=35
+ R2=0.028
+ C= {Cpar}
+ K1=0.000001
+ K2=0.065
+ K3= {Ind}
+ K4=0.01
+ K5=0.00000084
+ L=5.177E-07
+ Is=3.7939
+ a=1.5323
+ L_Z0=0
+ L_EL=0
+ L_F0=0E6
+ PkZ=861.77933
.ends XFL3012-561_sat

*======================================================================
* SPICE Model generated by Coilcraft
* Coilcraft Part Number : XFL3012-681
* Inductance = 680nH
*======================================================================
* Model Parameters:
*   Valid Frequency Range = 0.1MHz-1000MHz
*   Ambient Temperature = 25 degC
*   Inductor Frequency Model
*   Use model for Frequency Domain simulations
*======================================================================
.subckt XFL3012-681_freq port1 port2 PARAMS: Cpar=1.36pF Ind=0.68uH
X1 port1 port2 Model1A PARAMS:
+ R1=28
+ R2=0.034
+ C= {Cpar}
+ K1=0.000001
+ K2=0.1
+ K3= {Ind}
+ K4=0.01
+ K5=0.00000085
+ L=6.538E-07
+ Is=3.9027
+ a=1.2367
+ L_Z0=0
+ L_EL=0
+ L_F0=0E6
+ PkZ=1214.93674
.ends XFL3012-681_freq

*======================================================================
* SPICE Model generated by Coilcraft
* Coilcraft Part Number : XFL3012-681
* Inductance = 680nH
*======================================================================
* Model Parameters:
*   Valid Frequency Range = 0.1MHz-1000MHz
*   Ambient Temperature = 25 degC
*   Inductor Saturation Model
*   Use model for Time Domain simulations
*======================================================================
.subckt XFL3012-681_sat port1 port2 PARAMS: Cpar=1.261pF Ind=0.68uH
X1 port1 port2 Model1C PARAMS:
+ R1=28
+ R2=0.034
+ C= {Cpar}
+ K1=0.000001
+ K2=0.1
+ K3= {Ind}
+ K4=0.01
+ K5=0.00000085
+ L=6.538E-07
+ Is=3.9027
+ a=1.2367
+ L_Z0=0
+ L_EL=0
+ L_F0=0E6
+ PkZ=1214.93674
.ends XFL3012-681_sat

*======================================================================
* SPICE Model generated by Coilcraft
* Coilcraft Part Number : XFL3012-102
* Inductance = 1uH
*======================================================================
* Model Parameters:
*   Valid Frequency Range = 0.1MHz-500MHz
*   Ambient Temperature = 25 degC
*   Inductor Frequency Model
*   Use model for Frequency Domain simulations
*======================================================================
.subckt XFL3012-102_freq port1 port2 PARAMS: Cpar=1.6pF Ind=1uH
X1 port1 port2 Model1A PARAMS:
+ R1=18
+ R2=0.039
+ C= {Cpar}
+ K1=0.000001
+ K2=0.155
+ K3= {Ind}
+ K4=0.012
+ K5=0.00000085
+ L=9.815E-07
+ Is=3.5093
+ a=1.4797
+ L_Z0=0
+ L_EL=0
+ L_F0=0E6
+ PkZ=1673.85702
.ends XFL3012-102_freq

*======================================================================
* SPICE Model generated by Coilcraft
* Coilcraft Part Number : XFL3012-102
* Inductance = 1uH
*======================================================================
* Model Parameters:
*   Valid Frequency Range = 0.1MHz-500MHz
*   Ambient Temperature = 25 degC
*   Inductor Saturation Model
*   Use model for Time Domain simulations
*======================================================================
.subckt XFL3012-102_sat port1 port2 PARAMS: Cpar=1.51pF Ind=1uH
X1 port1 port2 Model1C PARAMS:
+ R1=18
+ R2=0.039
+ C= {Cpar}
+ K1=0.000001
+ K2=0.155
+ K3= {Ind}
+ K4=0.012
+ K5=0.00000085
+ L=9.815E-07
+ Is=3.5093
+ a=1.4797
+ L_Z0=0
+ L_EL=0
+ L_F0=0E6
+ PkZ=1673.85702
.ends XFL3012-102_sat

*======================================================================
* SPICE Model generated by Coilcraft
* Coilcraft Part Number : XFL3012-152
* Inductance = 1.5uH
*======================================================================
* Model Parameters:
*   Valid Frequency Range = 0.1MHz-500MHz
*   Ambient Temperature = 25 degC
*   Inductor Frequency Model
*   Use model for Frequency Domain simulations
*======================================================================
.subckt XFL3012-152_freq port1 port2 PARAMS: Cpar=2pF Ind=1.5uH
X1 port1 port2 Model1A PARAMS:
+ R1=20
+ R2=0.06
+ C= {Cpar}
+ K1=0.000001
+ K2=0.29
+ K3= {Ind}
+ K4=0.004
+ K5=0.0000007
+ L=1.6278E-06
+ Is=2.8538
+ a=1.2626
+ L_Z0=0
+ L_EL=0
+ L_F0=0E6
+ PkZ=2592.82497
.ends XFL3012-152_freq

*======================================================================
* SPICE Model generated by Coilcraft
* Coilcraft Part Number : XFL3012-152
* Inductance = 1.5uH
*======================================================================
* Model Parameters:
*   Valid Frequency Range = 0.1MHz-500MHz
*   Ambient Temperature = 25 degC
*   Inductor Saturation Model
*   Use model for Time Domain simulations
*======================================================================
.subckt XFL3012-152_sat port1 port2 PARAMS: Cpar=1.978pF Ind=1.5uH
X1 port1 port2 Model1C PARAMS:
+ R1=20
+ R2=0.06
+ C= {Cpar}
+ K1=0.000001
+ K2=0.29
+ K3= {Ind}
+ K4=0.004
+ K5=0.0000007
+ L=1.6278E-06
+ Is=2.8538
+ a=1.2626
+ L_Z0=0
+ L_EL=0
+ L_F0=0E6
+ PkZ=2592.82497
.ends XFL3012-152_sat

*======================================================================
* SPICE Model generated by Coilcraft
* Coilcraft Part Number : XFL3012-222
* Inductance = 2.2uH
*======================================================================
* Model Parameters:
*   Valid Frequency Range = 0.1MHz-500MHz
*   Ambient Temperature = 25 degC
*   Inductor Frequency Model
*   Use model for Frequency Domain simulations
*======================================================================
.subckt XFL3012-222_freq port1 port2 PARAMS: Cpar=2.1pF Ind=2.2uH
X1 port1 port2 Model1A PARAMS:
+ R1=20
+ R2=0.081
+ C= {Cpar}
+ K1=0.000001
+ K2=0.37
+ K3= {Ind}
+ K4=0.04
+ K5=0.000001
+ L=2.4049E-06
+ Is=2.2508
+ a=1.3353
+ L_Z0=0
+ L_EL=0
+ L_F0=0E6
+ PkZ=3044.53412
.ends XFL3012-222_freq

*======================================================================
* SPICE Model generated by Coilcraft
* Coilcraft Part Number : XFL3012-222
* Inductance = 2.2uH
*======================================================================
* Model Parameters:
*   Valid Frequency Range = 0.1MHz-500MHz
*   Ambient Temperature = 25 degC
*   Inductor Saturation Model
*   Use model for Time Domain simulations
*======================================================================
.subckt XFL3012-222_sat port1 port2 PARAMS: Cpar=1.936pF Ind=2.2uH
X1 port1 port2 Model1C PARAMS:
+ R1=20
+ R2=0.081
+ C= {Cpar}
+ K1=0.000001
+ K2=0.37
+ K3= {Ind}
+ K4=0.04
+ K5=0.000001
+ L=2.4049E-06
+ Is=2.2508
+ a=1.3353
+ L_Z0=0
+ L_EL=0
+ L_F0=0E6
+ PkZ=3044.53412
.ends XFL3012-222_sat

*======================================================================
* SPICE Model generated by Coilcraft
* Coilcraft Part Number : XFL3012-332
* Inductance = 3.3uH
*======================================================================
* Model Parameters:
*   Valid Frequency Range = 0.1MHz-400MHz
*   Ambient Temperature = 25 degC
*   Inductor Frequency Model
*   Use model for Frequency Domain simulations
*======================================================================
.subckt XFL3012-332_freq port1 port2 PARAMS: Cpar=2.2pF Ind=3.3uH
X1 port1 port2 Model1A PARAMS:
+ R1=14
+ R2=0.106
+ C= {Cpar}
+ K1=0.000001
+ K2=0.58
+ K3= {Ind}
+ K4=0.002
+ K5=0.0000002
+ L=3.4441E-06
+ Is=1.8892
+ a=1.1833
+ L_Z0=0
+ L_EL=0
+ L_F0=0E6
+ PkZ=4280.89505
.ends XFL3012-332_freq

*======================================================================
* SPICE Model generated by Coilcraft
* Coilcraft Part Number : XFL3012-332
* Inductance = 3.3uH
*======================================================================
* Model Parameters:
*   Valid Frequency Range = 0.1MHz-400MHz
*   Ambient Temperature = 25 degC
*   Inductor Saturation Model
*   Use model for Time Domain simulations
*======================================================================
.subckt XFL3012-332_sat port1 port2 PARAMS: Cpar=2.197pF Ind=3.3uH
X1 port1 port2 Model1C PARAMS:
+ R1=14
+ R2=0.106
+ C= {Cpar}
+ K1=0.000001
+ K2=0.58
+ K3= {Ind}
+ K4=0.002
+ K5=0.0000002
+ L=3.4441E-06
+ Is=1.8892
+ a=1.1833
+ L_Z0=0
+ L_EL=0
+ L_F0=0E6
+ PkZ=4280.89505
.ends XFL3012-332_sat

*======================================================================
* SPICE Model generated by Coilcraft
* Coilcraft Part Number : XFL3012-472
* Inductance = 4.7uH
*======================================================================
* Model Parameters:
*   Valid Frequency Range = 0.1MHz-250MHz
*   Ambient Temperature = 25 degC
*   Inductor Frequency Model
*   Use model for Frequency Domain simulations
*======================================================================
.subckt XFL3012-472_freq port1 port2 PARAMS: Cpar=2.24pF Ind=4.7uH
X1 port1 port2 Model1A PARAMS:
+ R1=11
+ R2=0.143
+ C= {Cpar}
+ K1=0.000001
+ K2=0.84
+ K3= {Ind}
+ K4=0.05
+ K5=0.000001
+ L=4.7258E-06
+ Is=1.5693
+ a=1.2227
+ L_Z0=0
+ L_EL=0
+ L_F0=0E6
+ PkZ=5758.38169
.ends XFL3012-472_freq

*======================================================================
* SPICE Model generated by Coilcraft
* Coilcraft Part Number : XFL3012-472
* Inductance = 4.7uH
*======================================================================
* Model Parameters:
*   Valid Frequency Range = 0.1MHz-250MHz
*   Ambient Temperature = 25 degC
*   Inductor Saturation Model
*   Use model for Time Domain simulations
*======================================================================
.subckt XFL3012-472_sat port1 port2 PARAMS: Cpar=2.147pF Ind=4.7uH
X1 port1 port2 Model1C PARAMS:
+ R1=11
+ R2=0.143
+ C= {Cpar}
+ K1=0.000001
+ K2=0.84
+ K3= {Ind}
+ K4=0.05
+ K5=0.000001
+ L=4.7258E-06
+ Is=1.5693
+ a=1.2227
+ L_Z0=0
+ L_EL=0
+ L_F0=0E6
+ PkZ=5758.38169
.ends XFL3012-472_sat

*======================================================================
* SPICE Model generated by Coilcraft
* Coilcraft Part Number : XFL3012-682
* Inductance = 6.8uH
*======================================================================
* Model Parameters:
*   Valid Frequency Range = 0.1MHz-250MHz
*   Ambient Temperature = 25 degC
*   Inductor Frequency Model
*   Use model for Frequency Domain simulations
*======================================================================
.subckt XFL3012-682_freq port1 port2 PARAMS: Cpar=2.3pF Ind=6.8uH
X1 port1 port2 Model1A PARAMS:
+ R1=11.5
+ R2=0.166
+ C= {Cpar}
+ K1=0.000001
+ K2=1
+ K3= {Ind}
+ K4=0.1
+ K5=0.00000093
+ L=6.5661E-06
+ Is=1.2778
+ a=1.4644
+ L_Z0=0
+ L_EL=0
+ L_F0=0E6
+ PkZ=6265.74965
.ends XFL3012-682_freq

*======================================================================
* SPICE Model generated by Coilcraft
* Coilcraft Part Number : XFL3012-682
* Inductance = 6.8uH
*======================================================================
* Model Parameters:
*   Valid Frequency Range = 0.1MHz-250MHz
*   Ambient Temperature = 25 degC
*   Inductor Saturation Model
*   Use model for Time Domain simulations
*======================================================================
.subckt XFL3012-682_sat port1 port2 PARAMS: Cpar=2.177pF Ind=6.8uH
X1 port1 port2 Model1C PARAMS:
+ R1=11.5
+ R2=0.166
+ C= {Cpar}
+ K1=0.000001
+ K2=1
+ K3= {Ind}
+ K4=0.1
+ K5=0.00000093
+ L=6.5661E-06
+ Is=1.2778
+ a=1.4644
+ L_Z0=0
+ L_EL=0
+ L_F0=0E6
+ PkZ=6265.74965
.ends XFL3012-682_sat

*======================================================================
* SPICE Model generated by Coilcraft
* Coilcraft Part Number : XFL3012-103
* Inductance = 10uH
*======================================================================
* Model Parameters:
*   Valid Frequency Range = 0.1MHz-250MHz
*   Ambient Temperature = 25 degC
*   Inductor Frequency Model
*   Use model for Frequency Domain simulations
*======================================================================
.subckt XFL3012-103_freq port1 port2 PARAMS: Cpar=2.6pF Ind=10uH
X1 port1 port2 Model1A PARAMS:
+ R1=12
+ R2=0.255
+ C= {Cpar}
+ K1=0.000001
+ K2=1.76
+ K3= {Ind}
+ K4=0.2
+ K5=0.000001
+ L=9.2485E-06
+ Is=1.0178
+ a=1.6042
+ L_Z0=0
+ L_EL=0
+ L_F0=0E6
+ PkZ=9684.91166
.ends XFL3012-103_freq

*======================================================================
* SPICE Model generated by Coilcraft
* Coilcraft Part Number : XFL3012-103
* Inductance = 10uH
*======================================================================
* Model Parameters:
*   Valid Frequency Range = 0.1MHz-250MHz
*   Ambient Temperature = 25 degC
*   Inductor Saturation Model
*   Use model for Time Domain simulations
*======================================================================
.subckt XFL3012-103_sat port1 port2 PARAMS: Cpar=2.421pF Ind=10uH
X1 port1 port2 Model1C PARAMS:
+ R1=12
+ R2=0.255
+ C= {Cpar}
+ K1=0.000001
+ K2=1.76
+ K3= {Ind}
+ K4=0.2
+ K5=0.000001
+ L=9.2485E-06
+ Is=1.0178
+ a=1.6042
+ L_Z0=0
+ L_EL=0
+ L_F0=0E6
+ PkZ=9684.91166
.ends XFL3012-103_sat

*======================================================================
* SPICE Model generated by Coilcraft
* Coilcraft Part Number : XFL3012-153
* Inductance = 15uH
*======================================================================
* Model Parameters:
*   Valid Frequency Range = 0.1MHz-250MHz
*   Ambient Temperature = 25 degC
*   Inductor Frequency Model
*   Use model for Frequency Domain simulations
*======================================================================
.subckt XFL3012-153_freq port1 port2 PARAMS: Cpar=2.5pF Ind=15uH
X1 port1 port2 Model1A PARAMS:
+ R1=11
+ R2=0.394
+ C= {Cpar}
+ K1=0.000001
+ K2=2.64
+ K3= {Ind}
+ K4=0.25
+ K5=0.000001
+ L=1.4003E-05
+ Is=0.9945
+ a=1.398
+ L_Z0=0
+ L_EL=0
+ L_F0=0E6
+ PkZ=13296.3441
.ends XFL3012-153_freq

*======================================================================
* SPICE Model generated by Coilcraft
* Coilcraft Part Number : XFL3012-153
* Inductance = 15uH
*======================================================================
* Model Parameters:
*   Valid Frequency Range = 0.1MHz-250MHz
*   Ambient Temperature = 25 degC
*   Inductor Saturation Model
*   Use model for Time Domain simulations
*======================================================================
.subckt XFL3012-153_sat port1 port2 PARAMS: Cpar=2.364pF Ind=15uH
X1 port1 port2 Model1C PARAMS:
+ R1=11
+ R2=0.394
+ C= {Cpar}
+ K1=0.000001
+ K2=2.64
+ K3= {Ind}
+ K4=0.25
+ K5=0.000001
+ L=1.4003E-05
+ Is=0.9945
+ a=1.398
+ L_Z0=0
+ L_EL=0
+ L_F0=0E6
+ PkZ=13296.3441
.ends XFL3012-153_sat

*======================================================================
* SPICE Model generated by Coilcraft
* Coilcraft Part Number : XFL3012-223
* Inductance = 22uH
*======================================================================
* Model Parameters:
*   Valid Frequency Range = 0.1MHz-200MHz
*   Ambient Temperature = 25 degC
*   Inductor Frequency Model
*   Use model for Frequency Domain simulations
*======================================================================
.subckt XFL3012-223_freq port1 port2 PARAMS: Cpar=2.51pF Ind=22uH
X1 port1 port2 Model1A PARAMS:
+ R1=12
+ R2=0.608
+ C= {Cpar}
+ K1=0.00065
+ K2=4
+ K3= {Ind}
+ K4=0.062
+ K5=0.000001
+ L=2.2695E-05
+ Is=0.6841
+ a=1.3178
+ L_Z0=0
+ L_EL=0
+ L_F0=0E6
+ PkZ=17976.2368
.ends XFL3012-223_freq

*======================================================================
* SPICE Model generated by Coilcraft
* Coilcraft Part Number : XFL3012-223
* Inductance = 22uH
*======================================================================
* Model Parameters:
*   Valid Frequency Range = 0.1MHz-200MHz
*   Ambient Temperature = 25 degC
*   Inductor Saturation Model
*   Use model for Time Domain simulations
*======================================================================
.subckt XFL3012-223_sat port1 port2 PARAMS: Cpar=2.488pF Ind=22uH
X1 port1 port2 Model1C PARAMS:
+ R1=12
+ R2=0.608
+ C= {Cpar}
+ K1=0.00065
+ K2=4
+ K3= {Ind}
+ K4=0.062
+ K5=0.000001
+ L=2.2695E-05
+ Is=0.6841
+ a=1.3178
+ L_Z0=0
+ L_EL=0
+ L_F0=0E6
+ PkZ=17976.2368
.ends XFL3012-223_sat

*======================================================================
* SPICE Model generated by Coilcraft
* Coilcraft Part Number : XFL3012-333
* Inductance = 33uH
*======================================================================
* Model Parameters:
*   Valid Frequency Range = 0.1MHz-200MHz
*   Ambient Temperature = 25 degC
*   Inductor Frequency Model
*   Use model for Frequency Domain simulations
*======================================================================
.subckt XFL3012-333_freq port1 port2 PARAMS: Cpar=2.35pF Ind=33uH
X1 port1 port2 Model1A PARAMS:
+ R1=12
+ R2=0.855
+ C= {Cpar}
+ K1=0.000001
+ K2=6.2
+ K3= {Ind}
+ K4=0.000001
+ K5=0.000001
+ L=3.1285E-05
+ Is=0.5431
+ a=1.6758
+ L_Z0=0
+ L_EL=0
+ L_F0=0E6
+ PkZ=25777.6905
.ends XFL3012-333_freq

*======================================================================
* SPICE Model generated by Coilcraft
* Coilcraft Part Number : XFL3012-333
* Inductance = 33uH
*======================================================================
* Model Parameters:
*   Valid Frequency Range = 0.1MHz-200MHz
*   Ambient Temperature = 25 degC
*   Inductor Saturation Model
*   Use model for Time Domain simulations
*======================================================================
.subckt XFL3012-333_sat port1 port2 PARAMS: Cpar=2.35pF Ind=33uH
X1 port1 port2 Model1C PARAMS:
+ R1=12
+ R2=0.855
+ C= {Cpar}
+ K1=0.000001
+ K2=6.2
+ K3= {Ind}
+ K4=0.000001
+ K5=0.000001
+ L=3.1285E-05
+ Is=0.5431
+ a=1.6758
+ L_Z0=0
+ L_EL=0
+ L_F0=0E6
+ PkZ=25777.6905
.ends XFL3012-333_sat

*======================================================================
* SPICE Model generated by Coilcraft
* Coilcraft Part Number : XFL3012-393
* Inductance = 39uH
*======================================================================
* Model Parameters:
*   Valid Frequency Range = 0.1MHz-200MHz
*   Ambient Temperature = 25 degC
*   Inductor Frequency Model
*   Use model for Frequency Domain simulations
*======================================================================
.subckt XFL3012-393_freq port1 port2 PARAMS: Cpar=2.4pF Ind=39uH
X1 port1 port2 Model1A PARAMS:
+ R1=10
+ R2=0.919
+ C= {Cpar}
+ K1=2.4245E-05
+ K2=8.2
+ K3= {Ind}
+ K4=0.9
+ K5=0.000001
+ L=3.6747E-05
+ Is=0.4908
+ a=1.6046
+ L_Z0=0
+ L_EL=0
+ L_F0=0E6
+ PkZ=33075.6329
.ends XFL3012-393_freq

*======================================================================
* SPICE Model generated by Coilcraft
* Coilcraft Part Number : XFL3012-393
* Inductance = 39uH
*======================================================================
* Model Parameters:
*   Valid Frequency Range = 0.1MHz-200MHz
*   Ambient Temperature = 25 degC
*   Inductor Saturation Model
*   Use model for Time Domain simulations
*======================================================================
.subckt XFL3012-393_sat port1 port2 PARAMS: Cpar=2.245pF Ind=39uH
X1 port1 port2 Model1C PARAMS:
+ R1=10
+ R2=0.919
+ C= {Cpar}
+ K1=2.4245E-05
+ K2=8.2
+ K3= {Ind}
+ K4=0.9
+ K5=0.000001
+ L=3.6747E-05
+ Is=0.4908
+ a=1.6046
+ L_Z0=0
+ L_EL=0
+ L_F0=0E6
+ PkZ=33075.6329
.ends XFL3012-393_sat

*======================================================================
* SPICE Model generated by Coilcraft
* Coilcraft Part Number : XFL3012-473
* Inductance = 47uH
*======================================================================
* Model Parameters:
*   Valid Frequency Range = 0.1MHz-200MHz
*   Ambient Temperature = 25 degC
*   Inductor Frequency Model
*   Use model for Frequency Domain simulations
*======================================================================
.subckt XFL3012-473_freq port1 port2 PARAMS: Cpar=2.9pF Ind=47uH
X1 port1 port2 Model1A PARAMS:
+ R1=13
+ R2=1.22
+ C= {Cpar}
+ K1=0.000001
+ K2=9
+ K3= {Ind}
+ K4=0.000001
+ K5=0.000001
+ L=4.5745E-05
+ Is=0.4348
+ a=1.7301
+ L_Z0=0
+ L_EL=0
+ L_F0=0E6
+ PkZ=32368.1251
.ends XFL3012-473_freq

*======================================================================
* SPICE Model generated by Coilcraft
* Coilcraft Part Number : XFL3012-473
* Inductance = 47uH
*======================================================================
* Model Parameters:
*   Valid Frequency Range = 0.1MHz-200MHz
*   Ambient Temperature = 25 degC
*   Inductor Saturation Model
*   Use model for Time Domain simulations
*======================================================================
.subckt XFL3012-473_sat port1 port2 PARAMS: Cpar=2.9pF Ind=47uH
X1 port1 port2 Model1C PARAMS:
+ R1=13
+ R2=1.22
+ C= {Cpar}
+ K1=0.000001
+ K2=9
+ K3= {Ind}
+ K4=0.000001
+ K5=0.000001
+ L=4.5745E-05
+ Is=0.4348
+ a=1.7301
+ L_Z0=0
+ L_EL=0
+ L_F0=0E6
+ PkZ=32368.1251
.ends XFL3012-473_sat

*======================================================================
* SPICE Model generated by Coilcraft
* Coilcraft Part Number : XFL3012-563
* Inductance = 56uH
*======================================================================
* Model Parameters:
*   Valid Frequency Range = 0.1MHz-150MHz
*   Ambient Temperature = 25 degC
*   Inductor Frequency Model
*   Use model for Frequency Domain simulations
*======================================================================
.subckt XFL3012-563_freq port1 port2 PARAMS: Cpar=2.45pF Ind=56uH
X1 port1 port2 Model1A PARAMS:
+ R1=13
+ R2=1.43
+ C= {Cpar}
+ K1=0.000001
+ K2=11.5
+ K3= {Ind}
+ K4=0.175
+ K5=0.000001
+ L=5.6162E-05
+ Is=0.4
+ a=1.6593
+ L_Z0=0
+ L_EL=0
+ L_F0=0E6
+ PkZ=41468.5429
.ends XFL3012-563_freq

*======================================================================
* SPICE Model generated by Coilcraft
* Coilcraft Part Number : XFL3012-563
* Inductance = 56uH
*======================================================================
* Model Parameters:
*   Valid Frequency Range = 0.1MHz-150MHz
*   Ambient Temperature = 25 degC
*   Inductor Saturation Model
*   Use model for Time Domain simulations
*======================================================================
.subckt XFL3012-563_sat port1 port2 PARAMS: Cpar=2.43pF Ind=56uH
X1 port1 port2 Model1C PARAMS:
+ R1=13
+ R2=1.43
+ C= {Cpar}
+ K1=0.000001
+ K2=11.5
+ K3= {Ind}
+ K4=0.175
+ K5=0.000001
+ L=5.6162E-05
+ Is=0.4
+ a=1.6593
+ L_Z0=0
+ L_EL=0
+ L_F0=0E6
+ PkZ=41468.5429
.ends XFL3012-563_sat

*======================================================================
* SPICE Model generated by Coilcraft
* Coilcraft Part Number : XFL3012-683
* Inductance = 68uH
*======================================================================
* Model Parameters:
*   Valid Frequency Range = 0.1MHz-150MHz
*   Ambient Temperature = 25 degC
*   Inductor Frequency Model
*   Use model for Frequency Domain simulations
*======================================================================
.subckt XFL3012-683_freq port1 port2 PARAMS: Cpar=2.44pF Ind=68uH
X1 port1 port2 Model1A PARAMS:
+ R1=11
+ R2=2.16
+ C= {Cpar}
+ K1=0.000001
+ K2=13
+ K3= {Ind}
+ K4=0.27
+ K5=0.000001
+ L=6.9984E-05
+ Is=0.3392
+ a=1.8663
+ L_Z0=0
+ L_EL=0
+ L_F0=0E6
+ PkZ=44991.0325
.ends XFL3012-683_freq

*======================================================================
* SPICE Model generated by Coilcraft
* Coilcraft Part Number : XFL3012-683
* Inductance = 68uH
*======================================================================
* Model Parameters:
*   Valid Frequency Range = 0.1MHz-150MHz
*   Ambient Temperature = 25 degC
*   Inductor Saturation Model
*   Use model for Time Domain simulations
*======================================================================
.subckt XFL3012-683_sat port1 port2 PARAMS: Cpar=2.416pF Ind=68uH
X1 port1 port2 Model1C PARAMS:
+ R1=11
+ R2=2.16
+ C= {Cpar}
+ K1=0.000001
+ K2=13
+ K3= {Ind}
+ K4=0.27
+ K5=0.000001
+ L=6.9984E-05
+ Is=0.3392
+ a=1.8663
+ L_Z0=0
+ L_EL=0
+ L_F0=0E6
+ PkZ=44991.0325
.ends XFL3012-683_sat

*======================================================================
* SPICE Model generated by Coilcraft
* Coilcraft Part Number : XFL3012-823
* Inductance = 82uH
*======================================================================
* Model Parameters:
*   Valid Frequency Range = 0.1MHz-150MHz
*   Ambient Temperature = 25 degC
*   Inductor Frequency Model
*   Use model for Frequency Domain simulations
*======================================================================
.subckt XFL3012-823_freq port1 port2 PARAMS: Cpar=2.6pF Ind=82uH
X1 port1 port2 Model1A PARAMS:
+ R1=13
+ R2=2.3
+ C= {Cpar}
+ K1=0.0004
+ K2=16
+ K3= {Ind}
+ K4=0.26
+ K5=0.000001
+ L=7.8102E-05
+ Is=0.3429
+ a=1.6705
+ L_Z0=0
+ L_EL=0
+ L_F0=0E6
+ PkZ=51675.563
.ends XFL3012-823_freq

*======================================================================
* SPICE Model generated by Coilcraft
* Coilcraft Part Number : XFL3012-823
* Inductance = 82uH
*======================================================================
* Model Parameters:
*   Valid Frequency Range = 0.1MHz-150MHz
*   Ambient Temperature = 25 degC
*   Inductor Saturation Model
*   Use model for Time Domain simulations
*======================================================================
.subckt XFL3012-823_sat port1 port2 PARAMS: Cpar=2.58pF Ind=82uH
X1 port1 port2 Model1C PARAMS:
+ R1=13
+ R2=2.3
+ C= {Cpar}
+ K1=0.0004
+ K2=16
+ K3= {Ind}
+ K4=0.26
+ K5=0.000001
+ L=7.8102E-05
+ Is=0.3429
+ a=1.6705
+ L_Z0=0
+ L_EL=0
+ L_F0=0E6
+ PkZ=51675.563
.ends XFL3012-823_sat

*======================================================================
* SPICE Model generated by Coilcraft
* Coilcraft Part Number : XFL3012-104
* Inductance = 100uH
*======================================================================
* Model Parameters:
*   Valid Frequency Range = 0.1MHz-100MHz
*   Ambient Temperature = 25 degC
*   Inductor Frequency Model
*   Use model for Frequency Domain simulations
*======================================================================
.subckt XFL3012-104_freq port1 port2 PARAMS: Cpar=2.7pF Ind=100uH
X1 port1 port2 Model1A PARAMS:
+ R1=14.5
+ R2=2.63
+ C= {Cpar}
+ K1=0.000001
+ K2=21.5
+ K3= {Ind}
+ K4=0.165
+ K5=0.000001
+ L=0.00010289
+ Is=0.3468
+ a=1.4566
+ L_Z0=0
+ L_EL=0
+ L_F0=0E6
+ PkZ=65260.1001
.ends XFL3012-104_freq

*======================================================================
* SPICE Model generated by Coilcraft