*======================================================================
* SPICE Model generated by Coilcraft
* Coilcraft Part Number : XFL4012-121
* Inductance = 120nH
*======================================================================
* Model Parameters:
*   Valid Frequency Range = 0.1MHz-500MHz
*   Ambient Temperature = 25 degC
*   Inductor Frequency Model
*   Use model for Frequency Domain simulations
*======================================================================
.subckt XFL4012-121_freq port1 port2 PARAMS: Cpar=4.6pF Ind=0.12uH
X1 port1 port2 Model1A PARAMS:
+ R1=19
+ R2=0.005
+ C= {Cpar}
+ K1=0.000005
+ K2=0.017
+ K3= {Ind}
+ K4=0.000001
+ K5=0.000003
+ L=1.231E-07
+ Is=16.4927
+ a=1.3305
+ L_Z0=0
+ L_EL=0
+ L_F0=0E6
+ PkZ=210.930663
.ends XFL4012-121_freq

*======================================================================
* SPICE Model generated by Coilcraft
* Coilcraft Part Number : XFL4012-121
* Inductance = 120nH
*======================================================================
* Model Parameters:
*   Valid Frequency Range = 0.1MHz-500MHz
*   Ambient Temperature = 25 degC
*   Inductor Saturation Model
*   Use model for Time Domain simulations
*======================================================================
.subckt XFL4012-121_sat port1 port2 PARAMS: Cpar=4.6pF Ind=0.12uH
X1 port1 port2 Model1C PARAMS:
+ R1=19
+ R2=0.005
+ C= {Cpar}
+ K1=0.000005
+ K2=0.017
+ K3= {Ind}
+ K4=0.000001
+ K5=0.000003
+ L=1.231E-07
+ Is=16.4927
+ a=1.3305
+ L_Z0=0
+ L_EL=0
+ L_F0=0E6
+ PkZ=210.930663
.ends XFL4012-121_sat

*======================================================================
* SPICE Model generated by Coilcraft
* Coilcraft Part Number : XFL4012-251
* Inductance = 250nH
*======================================================================
* Model Parameters:
*   Valid Frequency Range = 0.1MHz-500MHz
*   Ambient Temperature = 25 degC
*   Inductor Frequency Model
*   Use model for Frequency Domain simulations
*======================================================================
.subckt XFL4012-251_freq port1 port2 PARAMS: Cpar=5.8pF Ind=0.25uH
X1 port1 port2 Model1A PARAMS:
+ R1=17
+ R2=0.008
+ C= {Cpar}
+ K1=0.000019
+ K2=0.039
+ K3= {Ind}
+ K4=0.00004
+ K5=0.000002
+ L=2.465E-07
+ Is=13.3444
+ a=1.1981
+ L_Z0=0
+ L_EL=0
+ L_F0=0E6
+ PkZ=380.639415
.ends XFL4012-251_freq

*======================================================================
* SPICE Model generated by Coilcraft
* Coilcraft Part Number : XFL4012-251
* Inductance = 250nH
*======================================================================
* Model Parameters:
*   Valid Frequency Range = 0.1MHz-500MHz
*   Ambient Temperature = 25 degC
*   Inductor Saturation Model
*   Use model for Time Domain simulations
*======================================================================
.subckt XFL4012-251_sat port1 port2 PARAMS: Cpar=5.795pF Ind=0.25uH
X1 port1 port2 Model1C PARAMS:
+ R1=17
+ R2=0.008
+ C= {Cpar}
+ K1=0.000019
+ K2=0.039
+ K3= {Ind}
+ K4=0.00004
+ K5=0.000002
+ L=2.465E-07
+ Is=13.3444
+ a=1.1981
+ L_Z0=0
+ L_EL=0
+ L_F0=0E6
+ PkZ=380.639415
.ends XFL4012-251_sat

*======================================================================
* SPICE Model generated by Coilcraft
* Coilcraft Part Number : XFL4012-471
* Inductance = 470nH
*======================================================================
* Model Parameters:
*   Valid Frequency Range = 0.1MHz-500MHz
*   Ambient Temperature = 25 degC
*   Inductor Frequency Model
*   Use model for Frequency Domain simulations
*======================================================================
.subckt XFL4012-471_freq port1 port2 PARAMS: Cpar=6.2pF Ind=0.47uH
X1 port1 port2 Model1A PARAMS:
+ R1=13
+ R2=0.014
+ C= {Cpar}
+ K1=0.000035
+ K2=0.075
+ K3= {Ind}
+ K4=0.000002
+ K5=0.00000001
+ L=4.559E-07
+ Is=10.1441
+ a=1.1912
+ L_Z0=0
+ L_EL=0
+ L_F0=0E6
+ PkZ=642.50111
.ends XFL4012-471_freq

*======================================================================
* SPICE Model generated by Coilcraft
* Coilcraft Part Number : XFL4012-471
* Inductance = 470nH
*======================================================================
* Model Parameters:
*   Valid Frequency Range = 0.1MHz-500MHz
*   Ambient Temperature = 25 degC
*   Inductor Saturation Model
*   Use model for Time Domain simulations
*======================================================================
.subckt XFL4012-471_sat port1 port2 PARAMS: Cpar=6.2pF Ind=0.47uH
X1 port1 port2 Model1C PARAMS:
+ R1=13
+ R2=0.014
+ C= {Cpar}
+ K1=0.000035
+ K2=0.075
+ K3= {Ind}
+ K4=0.000002
+ K5=0.00000001
+ L=4.559E-07
+ Is=10.1441
+ a=1.1912
+ L_Z0=0
+ L_EL=0
+ L_F0=0E6
+ PkZ=642.50111
.ends XFL4012-471_sat

*======================================================================
* SPICE Model generated by Coilcraft
* Coilcraft Part Number : XFL4012-601
* Inductance = 600nH
*======================================================================
* Model Parameters:
*   Valid Frequency Range = 0.1MHz-500MHz
*   Ambient Temperature = 25 degC
*   Inductor Frequency Model
*   Use model for Frequency Domain simulations
*======================================================================
.subckt XFL4012-601_freq port1 port2 PARAMS: Cpar=5.3pF Ind=0.6uH
X1 port1 port2 Model1A PARAMS:
+ R1=15
+ R2=0.017
+ C= {Cpar}
+ K1=0.000115
+ K2=0.105
+ K3= {Ind}
+ K4=0.004
+ K5=0.000008
+ L=5.616E-07
+ Is=10.8392
+ a=1.003
+ L_Z0=0
+ L_EL=0
+ L_F0=0E6
+ PkZ=873.122046
.ends XFL4012-601_freq

*======================================================================
* SPICE Model generated by Coilcraft
* Coilcraft Part Number : XFL4012-601
* Inductance = 600nH
*======================================================================
* Model Parameters:
*   Valid Frequency Range = 0.1MHz-500MHz
*   Ambient Temperature = 25 degC
*   Inductor Saturation Model
*   Use model for Time Domain simulations
*======================================================================
.subckt XFL4012-601_sat port1 port2 PARAMS: Cpar=5.068pF Ind=0.6uH
X1 port1 port2 Model1C PARAMS:
+ R1=15
+ R2=0.017
+ C= {Cpar}
+ K1=0.000115
+ K2=0.105
+ K3= {Ind}
+ K4=0.004
+ K5=0.000008
+ L=5.616E-07
+ Is=10.8392
+ a=1.003
+ L_Z0=0
+ L_EL=0
+ L_F0=0E6
+ PkZ=873.122046
.ends XFL4012-601_sat

*======================================================================
* SPICE Model generated by Coilcraft
* Coilcraft Saturation Inductor Model
*======================================================================
* Model Parameters:
*   Valid Frequency Range Varies by Inductor
*   Ambient Temperature = 25 degC
*   Current Saturable Inductor Model
*======================================================================
.subckt Model1C Lin Lout PARAMS:
+ R1=1
+ R2=1
+ C=1
+ L=1
+ Is=1
+ a=1
+ PkZ=94.2 * {L} *1e6
R2 Lin N001 {R2}
R3 N001 Lout {PkZ}
C1 N001 N002 {C}
R1 N002 Lout {R1}
L1 N001 Lout flux={L*Is}*pwrs(tanh(pwrs((x/{Is}),{a})),{1/a})
.ends Model1C





*======================================================================
* SPICE Model generated by Coilcraft
* Coilcraft Power Inductor Model
*======================================================================
* Model Parameters:
*   Valid Frequency Range Varies by Inductor
*   Ambient Temperature = 25 degC
*   DC Bias Current = 0 A
*   Frequency Dependent Inductor Model
*======================================================================
.subckt Model1A Lin Lout PARAMS:
+ R1=1
+ R2=1
+ C=1
+ K1=1
+ K2=1
+ K3=1
+ K4=1
+ K5=1
R2 N001 Lin {R2}
R1 Lout N002 {R1}
C1 N002 N001 {C}
G_Rvar2 N001 Lout LAPLACE { V(N001, Lout) } {1/K2/(-S*S/4/PI^2)^0.25}
G_Rvar1 N001 N003 LAPLACE { V(N001, N003) } {1/K1/(-S*S/4/PI^2)^0.25}
G_Lvar N003 Lout  LAPLACE { V(N003, Lout) } {1/(S*1e-6*({K3*1e6}-({K4}*LOG({K5}*(sqrt(-S*S)/(2*pi))))))}
*This large resistance to ground has been added to prevent a floating node error
R3 N003 0 100Meg
.ends Model1A


.subckt Coilcraft_Inductor Lin Lout
R1 Lout Lin 100Meg
.ends Coilcraft_Inductor
