*======================================================================
* SPICE Model generated by Coilcraft
* Coilcraft Part Number : XFL4030-471
* Inductance = 470nH
*======================================================================
* Model Parameters:
*   Valid Frequency Range = 0.1MHz-125MHz
*   Ambient Temperature = 25 degC
*   Inductor Frequency Model
*   Use model for Frequency Domain simulations
*======================================================================
.subckt XFL4030-471_freq port1 port2 PARAMS: Cpar=6pF Ind=0.47uH
X1 port1 port2 Model1A PARAMS:
+ R1=90
+ R2=0.0036
+ C= {Cpar}
+ K1=0.000001
+ K2=0.0507
+ K3= {Ind}
+ K4=0.000001
+ K5=0.000001
+ L=4.787E-07
+ Is=5.5557
+ a=4.9541
+ L_Z0=0
+ L_EL=0
+ L_F0=0E6
+ PkZ=324.085737
.ends XFL4030-471_freq

*======================================================================
* SPICE Model generated by Coilcraft
* Coilcraft Part Number : XFL4030-471
* Inductance = 470nH
*======================================================================
* Model Parameters:
*   Valid Frequency Range = 0.1MHz-125MHz
*   Ambient Temperature = 25 degC
*   Inductor Saturation Model
*   Use model for Time Domain simulations
*======================================================================
.subckt XFL4030-471_sat port1 port2 PARAMS: Cpar=6pF Ind=0.47uH
X1 port1 port2 Model1C PARAMS:
+ R1=90
+ R2=0.0036
+ C= {Cpar}
+ K1=0.000001
+ K2=0.0507
+ K3= {Ind}
+ K4=0.000001
+ K5=0.000001
+ L=4.787E-07
+ Is=5.5557
+ a=4.9541
+ L_Z0=0
+ L_EL=0
+ L_F0=0E6
+ PkZ=324.085737
.ends XFL4030-471_sat

*======================================================================
* SPICE Model generated by Coilcraft
* Coilcraft Part Number : XFL4030-102
* Inductance = 1uH
*======================================================================
* Model Parameters:
*   Valid Frequency Range = 0.1MHz-100MHz
*   Ambient Temperature = 25 degC
*   Inductor Frequency Model
*   Use model for Frequency Domain simulations
*======================================================================
.subckt XFL4030-102_freq port1 port2 PARAMS: Cpar=6pF Ind=1uH
X1 port1 port2 Model1A PARAMS:
+ R1=90
+ R2=0.0055
+ C= {Cpar}
+ K1=0.000001
+ K2=0.2
+ K3= {Ind}
+ K4=0.000001
+ K5=0.000001
+ L=1.0103E-06
+ Is=4.368
+ a=5.1668
+ L_Z0=0
+ L_EL=0
+ L_F0=0E6
+ PkZ=876.446178
.ends XFL4030-102_freq

*======================================================================
* SPICE Model generated by Coilcraft
* Coilcraft Part Number : XFL4030-102
* Inductance = 1uH
*======================================================================
* Model Parameters:
*   Valid Frequency Range = 0.1MHz-100MHz
*   Ambient Temperature = 25 degC
*   Inductor Saturation Model
*   Use model for Time Domain simulations
*======================================================================
.subckt XFL4030-102_sat port1 port2 PARAMS: Cpar=6pF Ind=1uH
X1 port1 port2 Model1C PARAMS:
+ R1=90
+ R2=0.0055
+ C= {Cpar}
+ K1=0.000001
+ K2=0.2
+ K3= {Ind}
+ K4=0.000001
+ K5=0.000001
+ L=1.0103E-06
+ Is=4.368
+ a=5.1668
+ L_Z0=0
+ L_EL=0
+ L_F0=0E6
+ PkZ=876.446178
.ends XFL4030-102_sat

*======================================================================
* SPICE Model generated by Coilcraft
* Coilcraft Part Number : XFL4030-202
* Inductance = 2uH
*======================================================================
* Model Parameters:
*   Valid Frequency Range = 0.1MHz-75MHz
*   Ambient Temperature = 25 degC
*   Inductor Frequency Model
*   Use model for Frequency Domain simulations
*======================================================================
.subckt XFL4030-202_freq port1 port2 PARAMS: Cpar=7pF Ind=2uH
X1 port1 port2 Model1A PARAMS:
+ R1=60
+ R2=0.0095
+ C= {Cpar}
+ K1=0.000001
+ K2=0.45
+ K3= {Ind}
+ K4=0.000001
+ K5=0.000001
+ L=1.925E-06
+ Is=3.1818
+ a=5.5208
+ L_Z0=0
+ L_EL=0
+ L_F0=0E6
+ PkZ=1822.72045
.ends XFL4030-202_freq

*======================================================================
* SPICE Model generated by Coilcraft
* Coilcraft Part Number : XFL4030-202
* Inductance = 2uH
*======================================================================
* Model Parameters:
*   Valid Frequency Range = 0.1MHz-75MHz
*   Ambient Temperature = 25 degC
*   Inductor Saturation Model
*   Use model for Time Domain simulations
*======================================================================
.subckt XFL4030-202_sat port1 port2 PARAMS: Cpar=7pF Ind=2uH
X1 port1 port2 Model1C PARAMS:
+ R1=60
+ R2=0.0095
+ C= {Cpar}
+ K1=0.000001
+ K2=0.45
+ K3= {Ind}
+ K4=0.000001
+ K5=0.000001
+ L=1.925E-06
+ Is=3.1818
+ a=5.5208
+ L_Z0=0
+ L_EL=0
+ L_F0=0E6
+ PkZ=1822.72045
.ends XFL4030-202_sat

*======================================================================
* SPICE Model generated by Coilcraft
* Coilcraft Part Number : XFL4030-302
* Inductance = 3uH
*======================================================================
* Model Parameters:
*   Valid Frequency Range = 0.1MHz-75MHz
*   Ambient Temperature = 25 degC
*   Inductor Frequency Model
*   Use model for Frequency Domain simulations
*======================================================================
.subckt XFL4030-302_freq port1 port2 PARAMS: Cpar=5.4pF Ind=3uH
X1 port1 port2 Model1A PARAMS:
+ R1=85
+ R2=0.017
+ C= {Cpar}
+ K1=0.000001
+ K2=0.678
+ K3= {Ind}
+ K4=0.000001
+ K5=0.000001
+ L=3.092E-06
+ Is=2.3821
+ a=4.4653
+ L_Z0=0
+ L_EL=0
+ L_F0=0E6
+ PkZ=2590.80047
.ends XFL4030-302_freq

*======================================================================
* SPICE Model generated by Coilcraft
* Coilcraft Part Number : XFL4030-302
* Inductance = 3uH
*======================================================================
* Model Parameters:
*   Valid Frequency Range = 0.1MHz-75MHz
*   Ambient Temperature = 25 degC
*   Inductor Saturation Model
*   Use model for Time Domain simulations
*======================================================================
.subckt XFL4030-302_sat port1 port2 PARAMS: Cpar=5.4pF Ind=3uH
X1 port1 port2 Model1C PARAMS:
+ R1=85
+ R2=0.017
+ C= {Cpar}
+ K1=0.000001
+ K2=0.678
+ K3= {Ind}
+ K4=0.000001
+ K5=0.000001
+ L=3.092E-06
+ Is=2.3821
+ a=4.4653
+ L_Z0=0
+ L_EL=0
+ L_F0=0E6
+ PkZ=2590.80047
.ends XFL4030-302_sat

*======================================================================
* SPICE Model generated by Coilcraft
* Coilcraft Part Number : XFL4030-472
* Inductance = 4.7uH
*======================================================================
* Model Parameters:
*   Valid Frequency Range = 0.1MHz-50MHz
*   Ambient Temperature = 25 degC
*   Inductor Frequency Model
*   Use model for Frequency Domain simulations
*======================================================================
.subckt XFL4030-472_freq port1 port2 PARAMS: Cpar=6.5pF Ind=4.7uH
X1 port1 port2 Model1A PARAMS:
+ R1=74
+ R2=0.025
+ C= {Cpar}
+ K1=0.000001
+ K2=1.29
+ K3= {Ind}
+ K4=0.000001
+ K5=0.000001
+ L=4.5268E-06
+ Is=2.2199
+ a=4.4662
+ L_Z0=0
+ L_EL=0
+ L_F0=0E6
+ PkZ=4061.77658
.ends XFL4030-472_freq

*======================================================================
* SPICE Model generated by Coilcraft
* Coilcraft Part Number : XFL4030-472
* Inductance = 4.7uH
*======================================================================
* Model Parameters:
*   Valid Frequency Range = 0.1MHz-50MHz
*   Ambient Temperature = 25 degC
*   Inductor Saturation Model
*   Use model for Time Domain simulations
*======================================================================
.subckt XFL4030-472_sat port1 port2 PARAMS: Cpar=6.5pF Ind=4.7uH
X1 port1 port2 Model1C PARAMS:
+ R1=74
+ R2=0.025
+ C= {Cpar}
+ K1=0.000001
+ K2=1.29
+ K3= {Ind}
+ K4=0.000001
+ K5=0.000001
+ L=4.5268E-06
+ Is=2.2199
+ a=4.4662
+ L_Z0=0
+ L_EL=0
+ L_F0=0E6
+ PkZ=4061.77658
.ends XFL4030-472_sat

*======================================================================
* SPICE Model generated by Coilcraft
* Coilcraft Saturation Inductor Model
*======================================================================
* Model Parameters:
*   Valid Frequency Range Varies by Inductor
*   Ambient Temperature = 25 degC
*   Current Saturable Inductor Model
*======================================================================
.subckt Model1C Lin Lout PARAMS:
+ R1=1
+ R2=1
+ C=1
+ L=1
+ Is=1
+ a=1
+ PkZ=94.2 * {L} *1e6
R2 Lin N001 {R2}
R3 N001 Lout {PkZ}
C1 N001 N002 {C}
R1 N002 Lout {R1}
L1 N001 Lout flux={L*Is}*pwrs(tanh(pwrs((x/{Is}),{a})),{1/a})
.ends Model1C





*======================================================================
* SPICE Model generated by Coilcraft
* Coilcraft Power Inductor Model
*======================================================================
* Model Parameters:
*   Valid Frequency Range Varies by Inductor
*   Ambient Temperature = 25 degC
*   DC Bias Current = 0 A
*   Frequency Dependent Inductor Model
*======================================================================
.subckt Model1A Lin Lout PARAMS:
+ R1=1
+ R2=1
+ C=1
+ K1=1
+ K2=1
+ K3=1
+ K4=1
+ K5=1
R2 N001 Lin {R2}
R1 Lout N002 {R1}
C1 N002 N001 {C}
G_Rvar2 N001 Lout LAPLACE { V(N001, Lout) } {1/K2/(-S*S/4/PI^2)^0.25}
G_Rvar1 N001 N003 LAPLACE { V(N001, N003) } {1/K1/(-S*S/4/PI^2)^0.25}
G_Lvar N003 Lout  LAPLACE { V(N003, Lout) } {1/(S*1e-6*({K3*1e6}-({K4}*LOG({K5}*(sqrt(-S*S)/(2*pi))))))}
*This large resistance to ground has been added to prevent a floating node error
R3 N003 0 100Meg
.ends Model1A


.subckt Coilcraft_Inductor Lin Lout
R1 Lout Lin 100Meg
.ends Coilcraft_Inductor
