*======================================================================
* SPICE Model generated by Coilcraft
* Coilcraft Part Number : XFL4020-121
* Inductance = 120nH
*======================================================================
* Model Parameters:
*   Valid Frequency Range = 0.1MHz-500MHz
*   Ambient Temperature = 25 degC
*   Inductor Frequency Model
*   Use model for Frequency Domain simulations
*======================================================================
.subckt XFL4020-121_freq port1 port2 PARAMS: Cpar=4.2pF Ind=0.12uH
X1 port1 port2 Model1A PARAMS:
+ R1=10
+ R2=0.00145
+ C= {Cpar}
+ K1=0.000001
+ K2=0.011
+ K3= {Ind}
+ K4=0.000001
+ K5=0.000001
+ L=0
+ Is=0
+ a=0
+ L_Z0=0
+ L_EL=0
+ L_F0=0E6
+ PkZ=155.742665
.ends XFL4020-121_freq

*======================================================================
* SPICE Model generated by Coilcraft
* Coilcraft Part Number : XFL4020-121
* Inductance = 120nH
*======================================================================
* Model Parameters:
*   Valid Frequency Range = 0.1MHz-500MHz
*   Ambient Temperature = 25 degC
*   Inductor Impedance Model
*   Use model for Time Domain simulations
*======================================================================
.subckt XFL4020-121_imp port1 port2 PARAMS: Cpar=4.2pF Ind=0.12uH
X1 port1 port2 Model1D PARAMS:
+ R1=10
+ R2=0.00145
+ C= {Cpar}
+ K1=0.000001
+ K2=0.011
+ K3= {Ind}
+ K4=0.000001
+ K5=0.000001
+ L=0
+ Is=0
+ a=0
+ L_Z0=0
+ L_EL=0
+ L_F0=0E6
+ PkZ=155.742665
.ends XFL4020-121_imp

*======================================================================
* SPICE Model generated by Coilcraft
* Coilcraft Part Number : XFL4020-241
* Inductance = 240nH
*======================================================================
* Model Parameters:
*   Valid Frequency Range = 0.1MHz-250MHz
*   Ambient Temperature = 25 degC
*   Inductor Frequency Model
*   Use model for Frequency Domain simulations
*======================================================================
.subckt XFL4020-241_freq port1 port2 PARAMS: Cpar=5.1pF Ind=0.24uH
X1 port1 port2 Model1A PARAMS:
+ R1=10
+ R2=0.00245
+ C= {Cpar}
+ K1=0.000001
+ K2=0.03
+ K3= {Ind}
+ K4=0.000001
+ K5=0.000001
+ L=2.335E-07
+ Is=13.9808
+ a=1.5706
+ L_Z0=0
+ L_EL=0
+ L_F0=0E6
+ PkZ=334.285891
.ends XFL4020-241_freq

*======================================================================
* SPICE Model generated by Coilcraft
* Coilcraft Part Number : XFL4020-241
* Inductance = 240nH
*======================================================================
* Model Parameters:
*   Valid Frequency Range = 0.1MHz-250MHz
*   Ambient Temperature = 25 degC
*   Inductor Saturation Model
*   Use model for Time Domain simulations
*======================================================================
.subckt XFL4020-241_sat port1 port2 PARAMS: Cpar=5.1pF Ind=0.24uH
X1 port1 port2 Model1C PARAMS:
+ R1=10
+ R2=0.00245
+ C= {Cpar}
+ K1=0.000001
+ K2=0.03
+ K3= {Ind}
+ K4=0.000001
+ K5=0.000001
+ L=2.335E-07
+ Is=13.9808
+ a=1.5706
+ L_Z0=0
+ L_EL=0
+ L_F0=0E6
+ PkZ=334.285891
.ends XFL4020-241_sat

*======================================================================
* SPICE Model generated by Coilcraft
* Coilcraft Part Number : XFL4020-331
* Inductance = 330nH
*======================================================================
* Model Parameters:
*   Valid Frequency Range = 0.1MHz-250MHz
*   Ambient Temperature = 25 degC
*   Inductor Frequency Model
*   Use model for Frequency Domain simulations
*======================================================================
.subckt XFL4020-331_freq port1 port2 PARAMS: Cpar=5.9pF Ind=0.33uH
X1 port1 port2 Model1A PARAMS:
+ R1=11
+ R2=0.0032
+ C= {Cpar}
+ K1=0.000001
+ K2=0.038
+ K3= {Ind}
+ K4=0.0000025
+ K5=0.000065
+ L=3.282E-07
+ Is=9.0465
+ a=2.7853
+ L_Z0=0
+ L_EL=0
+ L_F0=0E6
+ PkZ=375.877937
.ends XFL4020-331_freq

*======================================================================
* SPICE Model generated by Coilcraft
* Coilcraft Part Number : XFL4020-331
* Inductance = 330nH
*======================================================================
* Model Parameters:
*   Valid Frequency Range = 0.1MHz-250MHz
*   Ambient Temperature = 25 degC
*   Inductor Saturation Model
*   Use model for Time Domain simulations
*======================================================================
.subckt XFL4020-331_sat port1 port2 PARAMS: Cpar=5.9pF Ind=0.33uH
X1 port1 port2 Model1C PARAMS:
+ R1=11
+ R2=0.0032
+ C= {Cpar}
+ K1=0.000001
+ K2=0.038
+ K3= {Ind}
+ K4=0.0000025
+ K5=0.000065
+ L=3.282E-07
+ Is=9.0465
+ a=2.7853
+ L_Z0=0
+ L_EL=0
+ L_F0=0E6
+ PkZ=375.877937
.ends XFL4020-331_sat

*======================================================================
* SPICE Model generated by Coilcraft
* Coilcraft Part Number : XFL4020-471
* Inductance = 470nH
*======================================================================
* Model Parameters:
*   Valid Frequency Range = 0.1MHz-200MHz
*   Ambient Temperature = 25 degC
*   Inductor Frequency Model
*   Use model for Frequency Domain simulations
*======================================================================
.subckt XFL4020-471_freq port1 port2 PARAMS: Cpar=6.2pF Ind=0.47uH
X1 port1 port2 Model1A PARAMS:
+ R1=20
+ R2=0.0044
+ C= {Cpar}
+ K1=0.000001
+ K2=0.07
+ K3= {Ind}
+ K4=0.0025
+ K5=0.00002
+ L=4.56E-07
+ Is=9.3927
+ a=1.8013
+ L_Z0=0
+ L_EL=0
+ L_F0=0E6
+ PkZ=575.36272
.ends XFL4020-471_freq

*======================================================================
* SPICE Model generated by Coilcraft
* Coilcraft Part Number : XFL4020-471
* Inductance = 470nH
*======================================================================
* Model Parameters:
*   Valid Frequency Range = 0.1MHz-200MHz
*   Ambient Temperature = 25 degC
*   Inductor Saturation Model
*   Use model for Time Domain simulations
*======================================================================
.subckt XFL4020-471_sat port1 port2 PARAMS: Cpar=5.952pF Ind=0.47uH
X1 port1 port2 Model1C PARAMS:
+ R1=20
+ R2=0.0044
+ C= {Cpar}
+ K1=0.000001
+ K2=0.07
+ K3= {Ind}
+ K4=0.0025
+ K5=0.00002
+ L=4.56E-07
+ Is=9.3927
+ a=1.8013
+ L_Z0=0
+ L_EL=0
+ L_F0=0E6
+ PkZ=575.36272
.ends XFL4020-471_sat

*======================================================================
* SPICE Model generated by Coilcraft
* Coilcraft Part Number : XFL4020-561
* Inductance = 560nH
*======================================================================
* Model Parameters:
*   Valid Frequency Range = 0.1MHz-200MHz
*   Ambient Temperature = 25 degC
*   Inductor Frequency Model
*   Use model for Frequency Domain simulations
*======================================================================
.subckt XFL4020-561_freq port1 port2 PARAMS: Cpar=5.5pF Ind=0.56uH
X1 port1 port2 Model1A PARAMS:
+ R1=13
+ R2=0.00553
+ C= {Cpar}
+ K1=0.000001
+ K2=0.06
+ K3= {Ind}
+ K4=0.00332
+ K5=0.00002
+ L=5.32E-07
+ Is=6.8251
+ a=4.122
+ L_Z0=0
+ L_EL=0
+ L_F0=0E6
+ PkZ=536.52722
.ends XFL4020-561_freq

*======================================================================
* SPICE Model generated by Coilcraft
* Coilcraft Part Number : XFL4020-561
* Inductance = 560nH
*======================================================================
* Model Parameters:
*   Valid Frequency Range = 0.1MHz-200MHz
*   Ambient Temperature = 25 degC
*   Inductor Saturation Model
*   Use model for Time Domain simulations
*======================================================================
.subckt XFL4020-561_sat port1 port2 PARAMS: Cpar=5.255pF Ind=0.56uH
X1 port1 port2 Model1C PARAMS:
+ R1=13
+ R2=0.00553
+ C= {Cpar}
+ K1=0.000001
+ K2=0.06
+ K3= {Ind}
+ K4=0.00332
+ K5=0.00002
+ L=5.32E-07
+ Is=6.8251
+ a=4.122
+ L_Z0=0
+ L_EL=0
+ L_F0=0E6
+ PkZ=536.52722
.ends XFL4020-561_sat

*======================================================================
* SPICE Model generated by Coilcraft
* Coilcraft Part Number : XFL4020-102
* Inductance = 1uH
*======================================================================
* Model Parameters:
*   Valid Frequency Range = 0.1MHz-100MHz
*   Ambient Temperature = 25 degC
*   Inductor Frequency Model
*   Use model for Frequency Domain simulations
*======================================================================
.subckt XFL4020-102_freq port1 port2 PARAMS: Cpar=5.79pF Ind=1uH
X1 port1 port2 Model1A PARAMS:
+ R1=50
+ R2=0.0108
+ C= {Cpar}
+ K1=0.00014
+ K2=0.32
+ K3= {Ind}
+ K4=0.014
+ K5=0.0000092
+ L=9.442E-07
+ Is=4.6973
+ a=3.4773
+ L_Z0=0
+ L_EL=0
+ L_F0=0E6
+ PkZ=1434.66021
.ends XFL4020-102_freq

*======================================================================
* SPICE Model generated by Coilcraft
* Coilcraft Part Number : XFL4020-102
* Inductance = 1uH
*======================================================================
* Model Parameters:
*   Valid Frequency Range = 0.1MHz-100MHz
*   Ambient Temperature = 25 degC
*   Inductor Saturation Model
*   Use model for Time Domain simulations
*======================================================================
.subckt XFL4020-102_sat port1 port2 PARAMS: Cpar=5.27pF Ind=1uH
X1 port1 port2 Model1C PARAMS:
+ R1=50
+ R2=0.0108
+ C= {Cpar}
+ K1=0.00014
+ K2=0.32
+ K3= {Ind}
+ K4=0.014
+ K5=0.0000092
+ L=9.442E-07
+ Is=4.6973
+ a=3.4773
+ L_Z0=0
+ L_EL=0
+ L_F0=0E6
+ PkZ=1434.66021
.ends XFL4020-102_sat

*======================================================================
* SPICE Model generated by Coilcraft
* Coilcraft Part Number : XFL4020-152
* Inductance = 1.5uH
*======================================================================
* Model Parameters:
*   Valid Frequency Range = 0.1MHz-80MHz
*   Ambient Temperature = 25 degC
*   Inductor Frequency Model
*   Use model for Frequency Domain simulations
*======================================================================
.subckt XFL4020-152_freq port1 port2 PARAMS: Cpar=4.93pF Ind=1.5uH
X1 port1 port2 Model1A PARAMS:
+ R1=52
+ R2=0.0144
+ C= {Cpar}
+ K1=0.0002
+ K2=0.38
+ K3= {Ind}
+ K4=0.024
+ K5=0.0000092
+ L=1.4169E-06
+ Is=4.6348
+ a=2.7636
+ L_Z0=0
+ L_EL=0
+ L_F0=0E6
+ PkZ=1889.29158
.ends XFL4020-152_freq

*======================================================================
* SPICE Model generated by Coilcraft
* Coilcraft Part Number : XFL4020-152
* Inductance = 1.5uH
*======================================================================
* Model Parameters:
*   Valid Frequency Range = 0.1MHz-80MHz
*   Ambient Temperature = 25 degC
*   Inductor Saturation Model
*   Use model for Time Domain simulations
*======================================================================
.subckt XFL4020-152_sat port1 port2 PARAMS: Cpar=4.434pF Ind=1.5uH
X1 port1 port2 Model1C PARAMS:
+ R1=52
+ R2=0.0144
+ C= {Cpar}
+ K1=0.0002
+ K2=0.38
+ K3= {Ind}
+ K4=0.024
+ K5=0.0000092
+ L=1.4169E-06
+ Is=4.6348
+ a=2.7636
+ L_Z0=0
+ L_EL=0
+ L_F0=0E6
+ PkZ=1889.29158
.ends XFL4020-152_sat

*======================================================================
* SPICE Model generated by Coilcraft
* Coilcraft Part Number : XFL4020-222
* Inductance = 2.2uH
*======================================================================
* Model Parameters:
*   Valid Frequency Range = 0.1MHz-80MHz
*   Ambient Temperature = 25 degC
*   Inductor Frequency Model
*   Use model for Frequency Domain simulations
*======================================================================
.subckt XFL4020-222_freq port1 port2 PARAMS: Cpar=5.23pF Ind=2.2uH
X1 port1 port2 Model1A PARAMS:
+ R1=50
+ R2=0.02135
+ C= {Cpar}
+ K1=0.0003
+ K2=0.6
+ K3= {Ind}
+ K4=0.038
+ K5=0.0000095
+ L=2.1253E-06
+ Is=3.9225
+ a=2.8496
+ L_Z0=0
+ L_EL=0
+ L_F0=0E6
+ PkZ=2670.55699
.ends XFL4020-222_freq

*======================================================================
* SPICE Model generated by Coilcraft
* Coilcraft Part Number : XFL4020-222
* Inductance = 2.2uH
*======================================================================
* Model Parameters:
*   Valid Frequency Range = 0.1MHz-80MHz
*   Ambient Temperature = 25 degC
*   Inductor Saturation Model
*   Use model for Time Domain simulations
*======================================================================
.subckt XFL4020-222_sat port1 port2 PARAMS: Cpar=4.679pF Ind=2.2uH
X1 port1 port2 Model1C PARAMS:
+ R1=50
+ R2=0.02135
+ C= {Cpar}
+ K1=0.0003
+ K2=0.6
+ K3= {Ind}
+ K4=0.038
+ K5=0.0000095
+ L=2.1253E-06
+ Is=3.9225
+ a=2.8496
+ L_Z0=0
+ L_EL=0
+ L_F0=0E6
+ PkZ=2670.55699
.ends XFL4020-222_sat

*======================================================================
* SPICE Model generated by Coilcraft
* Coilcraft Part Number : XFL4020-332
* Inductance = 3.3uH
*======================================================================
* Model Parameters:
*   Valid Frequency Range = 0.1MHz-60MHz
*   Ambient Temperature = 25 degC
*   Inductor Frequency Model
*   Use model for Frequency Domain simulations
*======================================================================
.subckt XFL4020-332_freq port1 port2 PARAMS: Cpar=5.5pF Ind=3.3uH
X1 port1 port2 Model1A PARAMS:
+ R1=50
+ R2=0.0348
+ C= {Cpar}
+ K1=0.00028
+ K2=1.1
+ K3= {Ind}
+ K4=0.044
+ K5=0.0000095
+ L=3.3364E-06
+ Is=3.4439
+ a=2.3123
+ L_Z0=0
+ L_EL=0
+ L_F0=0E6
+ PkZ=4184.13381
.ends XFL4020-332_freq

*======================================================================
* SPICE Model generated by Coilcraft
* Coilcraft Part Number : XFL4020-332
* Inductance = 3.3uH
*======================================================================
* Model Parameters:
*   Valid Frequency Range = 0.1MHz-60MHz
*   Ambient Temperature = 25 degC
*   Inductor Saturation Model
*   Use model for Time Domain simulations
*======================================================================
.subckt XFL4020-332_sat port1 port2 PARAMS: Cpar=5.069pF Ind=3.3uH
X1 port1 port2 Model1C PARAMS:
+ R1=50
+ R2=0.0348
+ C= {Cpar}
+ K1=0.00028
+ K2=1.1
+ K3= {Ind}
+ K4=0.044
+ K5=0.0000095
+ L=3.3364E-06
+ Is=3.4439
+ a=2.3123
+ L_Z0=0
+ L_EL=0
+ L_F0=0E6
+ PkZ=4184.13381
.ends XFL4020-332_sat

*======================================================================
* SPICE Model generated by Coilcraft
* Coilcraft Part Number : XFL4020-472
* Inductance = 4.7uH
*======================================================================
* Model Parameters:
*   Valid Frequency Range = 0.1MHz-50MHz
*   Ambient Temperature = 25 degC
*   Inductor Frequency Model
*   Use model for Frequency Domain simulations
*======================================================================
.subckt XFL4020-472_freq port1 port2 PARAMS: Cpar=6.02pF Ind=4.7uH
X1 port1 port2 Model1A PARAMS:
+ R1=55
+ R2=0.0522
+ C= {Cpar}
+ K1=0.00012
+ K2=1.5
+ K3= {Ind}
+ K4=0.07
+ K5=0.0000099
+ L=4.4469E-06
+ Is=3.1169
+ a=1.9245
+ L_Z0=0
+ L_EL=0
+ L_F0=0E6
+ PkZ=5079.24328
.ends XFL4020-472_freq

*======================================================================
* SPICE Model generated by Coilcraft
* Coilcraft Part Number : XFL4020-472
* Inductance = 4.7uH
*======================================================================
* Model Parameters:
*   Valid Frequency Range = 0.1MHz-50MHz
*   Ambient Temperature = 25 degC
*   Inductor Saturation Model
*   Use model for Time Domain simulations
*======================================================================
.subckt XFL4020-472_sat port1 port2 PARAMS: Cpar=5.51pF Ind=4.7uH
X1 port1 port2 Model1C PARAMS:
+ R1=55
+ R2=0.0522
+ C= {Cpar}
+ K1=0.00012
+ K2=1.5
+ K3= {Ind}
+ K4=0.07
+ K5=0.0000099
+ L=4.4469E-06
+ Is=3.1169
+ a=1.9245
+ L_Z0=0
+ L_EL=0
+ L_F0=0E6
+ PkZ=5079.24328
.ends XFL4020-472_sat

*======================================================================
* SPICE Model generated by Coilcraft
* Coilcraft Saturation Inductor Model
*======================================================================
* Model Parameters:
*   Valid Frequency Range Varies by Inductor
*   Ambient Temperature = 25 degC
*   Current Saturable Inductor Model
*======================================================================
.subckt Model1C Lin Lout PARAMS:
+ R1=1
+ R2=1
+ C=1
+ L=1
+ Is=1
+ a=1
+ PkZ=94.2 * {L} *1e6
R2 Lin N001 {R2}
R3 N001 Lout {PkZ}
C1 N001 N002 {C}
R1 N002 Lout {R1}
L1 N001 Lout flux={L*Is}*pwrs(tanh(pwrs((x/{Is}),{a})),{1/a})
.ends Model1C





*======================================================================
* SPICE Model generated by Coilcraft
* Coilcraft Power Inductor Model
*======================================================================
* Model Parameters:
*   Valid Frequency Range Varies by Inductor
*   Ambient Temperature = 25 degC
*   DC Bias Current = 0 A
*   Frequency Dependent Inductor Model
*======================================================================
.subckt Model1A Lin Lout PARAMS:
+ R1=1
+ R2=1
+ C=1
+ K1=1
+ K2=1
+ K3=1
+ K4=1
+ K5=1
R2 N001 Lin {R2}
R1 Lout N002 {R1}
C1 N002 N001 {C}
G_Rvar2 N001 Lout LAPLACE { V(N001, Lout) } {1/K2/(-S*S/4/PI^2)^0.25}
G_Rvar1 N001 N003 LAPLACE { V(N001, N003) } {1/K1/(-S*S/4/PI^2)^0.25}
G_Lvar N003 Lout  LAPLACE { V(N003, Lout) } {1/(S*1e-6*({K3*1e6}-({K4}*LOG({K5}*(sqrt(-S*S)/(2*pi))))))}
*This large resistance to ground has been added to prevent a floating node error
R3 N003 0 100Meg
.ends Model1A

*======================================================================
* SPICE Model generated by Coilcraft
* Coilcraft Impedance Inductor Model
*======================================================================
* Model Parameters:
*   Valid Frequency Range Varies by Inductor
*   Ambient Temperature = 25 degC
*   Time Domain Inductor Impedance Model
*======================================================================
.subckt Model1D Lin Lout PARAMS:
+ R1=1
+ R2=1
+ C=1
+ K3=1
+ PkZ=1
R2 Lin N001 {R2}
R3 N001 Lout {PkZ}
C1 N001 N002 {C}
R1 N002 Lout {R1}
L1 N001 Lout {K3}
.ends Model1D









.subckt Coilcraft_Inductor Lin Lout
R1 Lout Lin 100Meg
.ends Coilcraft_Inductor
