*======================================================================
* SPICE Model generated by Coilcraft
* Coilcraft Part Number : XFL4015-181
* Inductance = 180nH
*======================================================================
* Model Parameters:
*   Valid Frequency Range = 0.1MHz-300MHz
*   Ambient Temperature = 25 degC
*   Inductor Frequency Model
*   Use model for Frequency Domain simulations
*======================================================================
.subckt XFL4015-181_freq port1 port2 PARAMS: Cpar=4.7pF Ind=0.18uH
X1 port1 port2 Model1A PARAMS:
+ R1=45
+ R2=0.0042
+ C= {Cpar}
+ K1=0.000015
+ K2=0.021
+ K3= {Ind}
+ K4=0.00001
+ K5=0.0000755
+ L=1.575E-07
+ Is=11.6736
+ a=3.8601
+ L_Z0=0
+ L_EL=0
+ L_F0=0E6
+ PkZ=210.609526
.ends XFL4015-181_freq

*======================================================================
* SPICE Model generated by Coilcraft
* Coilcraft Part Number : XFL4015-181
* Inductance = 180nH
*======================================================================
* Model Parameters:
*   Valid Frequency Range = 0.1MHz-300MHz
*   Ambient Temperature = 25 degC
*   Inductor Saturation Model
*   Use model for Time Domain simulations
*======================================================================
.subckt XFL4015-181_sat port1 port2 PARAMS: Cpar=4.698pF Ind=0.18uH
X1 port1 port2 Model1C PARAMS:
+ R1=45
+ R2=0.0042
+ C= {Cpar}
+ K1=0.000015
+ K2=0.021
+ K3= {Ind}
+ K4=0.00001
+ K5=0.0000755
+ L=1.575E-07
+ Is=11.6736
+ a=3.8601
+ L_Z0=0
+ L_EL=0
+ L_F0=0E6
+ PkZ=210.609526
.ends XFL4015-181_sat

*======================================================================
* SPICE Model generated by Coilcraft
* Coilcraft Part Number : XFL4015-331
* Inductance = 330nH
*======================================================================
* Model Parameters:
*   Valid Frequency Range = 0.1MHz-500MHz
*   Ambient Temperature = 25 degC
*   Inductor Frequency Model
*   Use model for Frequency Domain simulations
*======================================================================
.subckt XFL4015-331_freq port1 port2 PARAMS: Cpar=5pF Ind=0.33uH
X1 port1 port2 Model1A PARAMS:
+ R1=18
+ R2=0.0068
+ C= {Cpar}
+ K1=0.000056
+ K2=0.039
+ K3= {Ind}
+ K4=0.0001
+ K5=2.2E-08
+ L=3.17E-07
+ Is=9.7654
+ a=2.5
+ L_Z0=0
+ L_EL=0
+ L_F0=0E6
+ PkZ=386.949351
.ends XFL4015-331_freq

*======================================================================
* SPICE Model generated by Coilcraft
* Coilcraft Part Number : XFL4015-331
* Inductance = 330nH
*======================================================================
* Model Parameters:
*   Valid Frequency Range = 0.1MHz-500MHz
*   Ambient Temperature = 25 degC
*   Inductor Saturation Model
*   Use model for Time Domain simulations
*======================================================================
.subckt XFL4015-331_sat port1 port2 PARAMS: Cpar=4.998pF Ind=0.33uH
X1 port1 port2 Model1C PARAMS:
+ R1=18
+ R2=0.0068
+ C= {Cpar}
+ K1=0.000056
+ K2=0.039
+ K3= {Ind}
+ K4=0.0001
+ K5=2.2E-08
+ L=3.17E-07
+ Is=9.7654
+ a=2.5
+ L_Z0=0
+ L_EL=0
+ L_F0=0E6
+ PkZ=386.949351
.ends XFL4015-331_sat

*======================================================================
* SPICE Model generated by Coilcraft
* Coilcraft Part Number : XFL4015-471
* Inductance = 470nH
*======================================================================
* Model Parameters:
*   Valid Frequency Range = 0.1MHz-500MHz
*   Ambient Temperature = 25 degC
*   Inductor Frequency Model
*   Use model for Frequency Domain simulations
*======================================================================
.subckt XFL4015-471_freq port1 port2 PARAMS: Cpar=5pF Ind=0.47uH
X1 port1 port2 Model1A PARAMS:
+ R1=15
+ R2=0.0076
+ C= {Cpar}
+ K1=0.00014
+ K2=0.071
+ K3= {Ind}
+ K4=0.00049
+ K5=2.65E-07
+ L=4.799E-07
+ Is=8.5973
+ a=2.086
+ L_Z0=0
+ L_EL=0
+ L_F0=0E6
+ PkZ=642.641127
.ends XFL4015-471_freq

*======================================================================
* SPICE Model generated by Coilcraft
* Coilcraft Part Number : XFL4015-471
* Inductance = 470nH
*======================================================================
* Model Parameters:
*   Valid Frequency Range = 0.1MHz-500MHz
*   Ambient Temperature = 25 degC
*   Inductor Saturation Model
*   Use model for Time Domain simulations
*======================================================================
.subckt XFL4015-471_sat port1 port2 PARAMS: Cpar=4.983pF Ind=0.47uH
X1 port1 port2 Model1C PARAMS:
+ R1=15
+ R2=0.0076
+ C= {Cpar}
+ K1=0.00014
+ K2=0.071
+ K3= {Ind}
+ K4=0.00049
+ K5=2.65E-07
+ L=4.799E-07
+ Is=8.5973
+ a=2.086
+ L_Z0=0
+ L_EL=0
+ L_F0=0E6
+ PkZ=642.641127
.ends XFL4015-471_sat

*======================================================================
* SPICE Model generated by Coilcraft
* Coilcraft Part Number : XFL4015-701
* Inductance = 700nH
*======================================================================
* Model Parameters:
*   Valid Frequency Range = 0.1MHz-500MHz
*   Ambient Temperature = 25 degC
*   Inductor Frequency Model
*   Use model for Frequency Domain simulations
*======================================================================
.subckt XFL4015-701_freq port1 port2 PARAMS: Cpar=5.9pF Ind=0.7uH
X1 port1 port2 Model1A PARAMS:
+ R1=13
+ R2=0.0095
+ C= {Cpar}
+ K1=0.0001
+ K2=0.11
+ K3= {Ind}
+ K4=0.0045
+ K5=0.0000075
+ L=6.907E-07
+ Is=7.3696
+ a=2.7622
+ L_Z0=0
+ L_EL=0
+ L_F0=0E6
+ PkZ=878.331056
.ends XFL4015-701_freq

*======================================================================
* SPICE Model generated by Coilcraft
* Coilcraft Part Number : XFL4015-701
* Inductance = 700nH
*======================================================================
* Model Parameters:
*   Valid Frequency Range = 0.1MHz-500MHz
*   Ambient Temperature = 25 degC
*   Inductor Saturation Model
*   Use model for Time Domain simulations
*======================================================================
.subckt XFL4015-701_sat port1 port2 PARAMS: Cpar=5.658pF Ind=0.7uH
X1 port1 port2 Model1C PARAMS:
+ R1=13
+ R2=0.0095
+ C= {Cpar}
+ K1=0.0001
+ K2=0.11
+ K3= {Ind}
+ K4=0.0045
+ K5=0.0000075
+ L=6.907E-07
+ Is=7.3696
+ a=2.7622
+ L_Z0=0
+ L_EL=0
+ L_F0=0E6
+ PkZ=878.331056
.ends XFL4015-701_sat

*======================================================================
* SPICE Model generated by Coilcraft
* Coilcraft Part Number : XFL4015-122
* Inductance = 1.2uH
*======================================================================
* Model Parameters:
*   Valid Frequency Range = 0.1MHz-500MHz
*   Ambient Temperature = 25 degC
*   Inductor Frequency Model
*   Use model for Frequency Domain simulations
*======================================================================
.subckt XFL4015-122_freq port1 port2 PARAMS: Cpar=4.7pF Ind=1.2uH
X1 port1 port2 Model1A PARAMS:
+ R1=15
+ R2=0.0188
+ C= {Cpar}
+ K1=0.00017
+ K2=0.2
+ K3= {Ind}
+ K4=0.0066
+ K5=0.0000074
+ L=1.1507E-06
+ Is=5.3364
+ a=2.4925
+ L_Z0=0
+ L_EL=0
+ L_F0=0E6
+ PkZ=1488.20236
.ends XFL4015-122_freq

*======================================================================
* SPICE Model generated by Coilcraft
* Coilcraft Part Number : XFL4015-122
* Inductance = 1.2uH
*======================================================================
* Model Parameters:
*   Valid Frequency Range = 0.1MHz-500MHz
*   Ambient Temperature = 25 degC
*   Inductor Saturation Model
*   Use model for Time Domain simulations
*======================================================================
.subckt XFL4015-122_sat port1 port2 PARAMS: Cpar=4.54pF Ind=1.2uH
X1 port1 port2 Model1C PARAMS:
+ R1=15
+ R2=0.0188
+ C= {Cpar}
+ K1=0.00017
+ K2=0.2
+ K3= {Ind}
+ K4=0.0066
+ K5=0.0000074
+ L=1.1507E-06
+ Is=5.3364
+ a=2.4925
+ L_Z0=0
+ L_EL=0
+ L_F0=0E6
+ PkZ=1488.20236
.ends XFL4015-122_sat

*======================================================================
* SPICE Model generated by Coilcraft
* Coilcraft Saturation Inductor Model
*======================================================================
* Model Parameters:
*   Valid Frequency Range Varies by Inductor
*   Ambient Temperature = 25 degC
*   Current Saturable Inductor Model
*======================================================================
.subckt Model1C Lin Lout PARAMS:
+ R1=1
+ R2=1
+ C=1
+ L=1
+ Is=1
+ a=1
+ PkZ=94.2 * {L} *1e6
R2 Lin N001 {R2}
R3 N001 Lout {PkZ}
C1 N001 N002 {C}
R1 N002 Lout {R1}
L1 N001 Lout flux={L*Is}*pwrs(tanh(pwrs((x/{Is}),{a})),{1/a})
.ends Model1C





*======================================================================
* SPICE Model generated by Coilcraft
* Coilcraft Power Inductor Model
*======================================================================
* Model Parameters:
*   Valid Frequency Range Varies by Inductor
*   Ambient Temperature = 25 degC
*   DC Bias Current = 0 A
*   Frequency Dependent Inductor Model
*======================================================================
.subckt Model1A Lin Lout PARAMS:
+ R1=1
+ R2=1
+ C=1
+ K1=1
+ K2=1
+ K3=1
+ K4=1
+ K5=1
R2 N001 Lin {R2}
R1 Lout N002 {R1}
C1 N002 N001 {C}
G_Rvar2 N001 Lout LAPLACE { V(N001, Lout) } {1/K2/(-S*S/4/PI^2)^0.25}
G_Rvar1 N001 N003 LAPLACE { V(N001, N003) } {1/K1/(-S*S/4/PI^2)^0.25}
G_Lvar N003 Lout  LAPLACE { V(N003, Lout) } {1/(S*1e-6*({K3*1e6}-({K4}*LOG({K5}*(sqrt(-S*S)/(2*pi))))))}
*This large resistance to ground has been added to prevent a floating node error
R3 N003 0 100Meg
.ends Model1A


.subckt Coilcraft_Inductor Lin Lout
R1 Lout Lin 100Meg
.ends Coilcraft_Inductor
