*======================================================================
* SPICE Model generated by Coilcraft
* Coilcraft Part Number : XFL5030-271
* Inductance = 270nH
*======================================================================
* Model Parameters:
*   Valid Frequency Range = 0.1MHz-200MHz
*   Ambient Temperature = 25 degC
*   Inductor Frequency Model
*   Use model for Frequency Domain simulations
*======================================================================
.subckt XFL5030-271_freq port1 port2 PARAMS: Cpar=6.32pF Ind=0.27uH
X1 port1 port2 Model1A PARAMS:
+ R1=65
+ R2=0.00215
+ C= {Cpar}
+ K1=0.000001
+ K2=0.04
+ K3= {Ind}
+ K4=0.000001
+ K5=0.000001
+ L=0
+ Is=0
+ a=0
+ L_Z0=0
+ L_EL=0
+ L_F0=0E6
+ PkZ=272.065633
.ends XFL5030-271_freq

*======================================================================
* SPICE Model generated by Coilcraft
* Coilcraft Part Number : XFL5030-271
* Inductance = 270nH
*======================================================================
* Model Parameters:
*   Valid Frequency Range = 0.1MHz-200MHz
*   Ambient Temperature = 25 degC
*   Inductor Impedance Model
*   Use model for Time Domain simulations
*======================================================================
.subckt XFL5030-271_imp port1 port2 PARAMS: Cpar=6.32pF Ind=0.27uH
X1 port1 port2 Model1D PARAMS:
+ R1=65
+ R2=0.00215
+ C= {Cpar}
+ K1=0.000001
+ K2=0.04
+ K3= {Ind}
+ K4=0.000001
+ K5=0.000001
+ L=0
+ Is=0
+ a=0
+ L_Z0=0
+ L_EL=0
+ L_F0=0E6
+ PkZ=272.065633
.ends XFL5030-271_imp

*======================================================================
* SPICE Model generated by Coilcraft
* Coilcraft Part Number : XFL5030-561
* Inductance = 560nH
*======================================================================
* Model Parameters:
*   Valid Frequency Range = 0.1MHz-150MHz
*   Ambient Temperature = 25 degC
*   Inductor Frequency Model
*   Use model for Frequency Domain simulations
*======================================================================
.subckt XFL5030-561_freq port1 port2 PARAMS: Cpar=8pF Ind=0.56uH
X1 port1 port2 Model1A PARAMS:
+ R1=60
+ R2=0.0032
+ C= {Cpar}
+ K1=0.000001
+ K2=0.1
+ K3= {Ind}
+ K4=0.000001
+ K5=0.000001
+ L=0
+ Is=0
+ a=0
+ L_Z0=0
+ L_EL=0
+ L_F0=0E6
+ PkZ=505.763803
.ends XFL5030-561_freq

*======================================================================
* SPICE Model generated by Coilcraft
* Coilcraft Part Number : XFL5030-561
* Inductance = 560nH
*======================================================================
* Model Parameters:
*   Valid Frequency Range = 0.1MHz-150MHz
*   Ambient Temperature = 25 degC
*   Inductor Impedance Model
*   Use model for Time Domain simulations
*======================================================================
.subckt XFL5030-561_imp port1 port2 PARAMS: Cpar=8pF Ind=0.56uH
X1 port1 port2 Model1D PARAMS:
+ R1=60
+ R2=0.0032
+ C= {Cpar}
+ K1=0.000001
+ K2=0.1
+ K3= {Ind}
+ K4=0.000001
+ K5=0.000001
+ L=0
+ Is=0
+ a=0
+ L_Z0=0
+ L_EL=0
+ L_F0=0E6
+ PkZ=505.763803
.ends XFL5030-561_imp

*======================================================================
* SPICE Model generated by Coilcraft
* Coilcraft Part Number : XFL5030-102
* Inductance = 1uH
*======================================================================
* Model Parameters:
*   Valid Frequency Range = 0.1MHz-100MHz
*   Ambient Temperature = 25 degC
*   Inductor Frequency Model
*   Use model for Frequency Domain simulations
*======================================================================
.subckt XFL5030-102_freq port1 port2 PARAMS: Cpar=9.6pF Ind=1uH
X1 port1 port2 Model1A PARAMS:
+ R1=31.2
+ R2=0.0042
+ C= {Cpar}
+ K1=0.000001
+ K2=0.2
+ K3= {Ind}
+ K4=0.000001
+ K5=0.000001
+ L=0
+ Is=0
+ a=0
+ L_Z0=0
+ L_EL=0
+ L_F0=0E6
+ PkZ=1005.1667
.ends XFL5030-102_freq

*======================================================================
* SPICE Model generated by Coilcraft
* Coilcraft Part Number : XFL5030-102
* Inductance = 1uH
*======================================================================
* Model Parameters:
*   Valid Frequency Range = 0.1MHz-100MHz
*   Ambient Temperature = 25 degC
*   Inductor Impedance Model
*   Use model for Time Domain simulations
*======================================================================
.subckt XFL5030-102_imp port1 port2 PARAMS: Cpar=9.6pF Ind=1uH
X1 port1 port2 Model1D PARAMS:
+ R1=31.2
+ R2=0.0042
+ C= {Cpar}
+ K1=0.000001
+ K2=0.2
+ K3= {Ind}
+ K4=0.000001
+ K5=0.000001
+ L=0
+ Is=0
+ a=0
+ L_Z0=0
+ L_EL=0
+ L_F0=0E6
+ PkZ=1005.1667
.ends XFL5030-102_imp

*======================================================================
* SPICE Model generated by Coilcraft
* Coilcraft Part Number : XFL5030-222
* Inductance = 2.2uH
*======================================================================
* Model Parameters:
*   Valid Frequency Range = 0.1MHz-100MHz
*   Ambient Temperature = 25 degC
*   Inductor Frequency Model
*   Use model for Frequency Domain simulations
*======================================================================
.subckt XFL5030-222_freq port1 port2 PARAMS: Cpar=9pF Ind=2.2uH
X1 port1 port2 Model1A PARAMS:
+ R1=22.8
+ R2=0.0105
+ C= {Cpar}
+ K1=0.000001
+ K2=0.376
+ K3= {Ind}
+ K4=0.000001
+ K5=0.000001
+ L=0
+ Is=0
+ a=0
+ L_Z0=0
+ L_EL=0
+ L_F0=0E6
+ PkZ=1859.37679
.ends XFL5030-222_freq

*======================================================================
* SPICE Model generated by Coilcraft
* Coilcraft Part Number : XFL5030-222
* Inductance = 2.2uH
*======================================================================
* Model Parameters:
*   Valid Frequency Range = 0.1MHz-100MHz
*   Ambient Temperature = 25 degC
*   Inductor Impedance Model
*   Use model for Time Domain simulations
*======================================================================
.subckt XFL5030-222_imp port1 port2 PARAMS: Cpar=9pF Ind=2.2uH
X1 port1 port2 Model1D PARAMS:
+ R1=22.8
+ R2=0.0105
+ C= {Cpar}
+ K1=0.000001
+ K2=0.376
+ K3= {Ind}
+ K4=0.000001
+ K5=0.000001
+ L=0
+ Is=0
+ a=0
+ L_Z0=0
+ L_EL=0
+ L_F0=0E6
+ PkZ=1859.37679
.ends XFL5030-222_imp

*======================================================================
* SPICE Model generated by Coilcraft
* Coilcraft Part Number : XFL5030-332
* Inductance = 3.3uH
*======================================================================
* Model Parameters:
*   Valid Frequency Range = 0.1MHz-75MHz
*   Ambient Temperature = 25 degC
*   Inductor Frequency Model
*   Use model for Frequency Domain simulations
*======================================================================
.subckt XFL5030-332_freq port1 port2 PARAMS: Cpar=8.7pF Ind=3.3uH
X1 port1 port2 Model1A PARAMS:
+ R1=34.8
+ R2=0.0135
+ C= {Cpar}
+ K1=0.000001
+ K2=0.821
+ K3= {Ind}
+ K4=0.000001
+ K5=0.000001
+ L=0
+ Is=0
+ a=0
+ L_Z0=0
+ L_EL=0
+ L_F0=0E6
+ PkZ=3174.62971
.ends XFL5030-332_freq

*======================================================================
* SPICE Model generated by Coilcraft
* Coilcraft Part Number : XFL5030-332
* Inductance = 3.3uH
*======================================================================
* Model Parameters:
*   Valid Frequency Range = 0.1MHz-75MHz
*   Ambient Temperature = 25 degC
*   Inductor Impedance Model
*   Use model for Time Domain simulations
*======================================================================
.subckt XFL5030-332_imp port1 port2 PARAMS: Cpar=8.7pF Ind=3.3uH
X1 port1 port2 Model1D PARAMS:
+ R1=34.8
+ R2=0.0135
+ C= {Cpar}
+ K1=0.000001
+ K2=0.821
+ K3= {Ind}
+ K4=0.000001
+ K5=0.000001
+ L=0
+ Is=0
+ a=0
+ L_Z0=0
+ L_EL=0
+ L_F0=0E6
+ PkZ=3174.62971
.ends XFL5030-332_imp

*======================================================================
* SPICE Model generated by Coilcraft
* Coilcraft Part Number : XFL5030-472
* Inductance = 4.7uH
*======================================================================
* Model Parameters:
*   Valid Frequency Range = 0.1MHz-75MHz
*   Ambient Temperature = 25 degC
*   Inductor Frequency Model
*   Use model for Frequency Domain simulations
*======================================================================
.subckt XFL5030-472_freq port1 port2 PARAMS: Cpar=9.8pF Ind=4.7uH
X1 port1 port2 Model1A PARAMS:
+ R1=20
+ R2=0.0185
+ C= {Cpar}
+ K1=0.000001
+ K2=1.1
+ K3= {Ind}
+ K4=0.000001
+ K5=0.000001
+ L=0
+ Is=0
+ a=0
+ L_Z0=0
+ L_EL=0
+ L_F0=0E6
+ PkZ=4359.05926
.ends XFL5030-472_freq

*======================================================================
* SPICE Model generated by Coilcraft
* Coilcraft Part Number : XFL5030-472
* Inductance = 4.7uH
*======================================================================
* Model Parameters:
*   Valid Frequency Range = 0.1MHz-75MHz
*   Ambient Temperature = 25 degC
*   Inductor Impedance Model
*   Use model for Time Domain simulations
*======================================================================
.subckt XFL5030-472_imp port1 port2 PARAMS: Cpar=9.8pF Ind=4.7uH
X1 port1 port2 Model1D PARAMS:
+ R1=20
+ R2=0.0185
+ C= {Cpar}
+ K1=0.000001
+ K2=1.1
+ K3= {Ind}
+ K4=0.000001
+ K5=0.000001
+ L=0
+ Is=0
+ a=0
+ L_Z0=0
+ L_EL=0
+ L_F0=0E6
+ PkZ=4359.05926
.ends XFL5030-472_imp

*======================================================================
* SPICE Model generated by Coilcraft
* Coilcraft Impedance Inductor Model
*======================================================================
* Model Parameters:
*   Valid Frequency Range Varies by Inductor
*   Ambient Temperature = 25 degC
*   Time Domain Inductor Impedance Model
*======================================================================
.subckt Model1D Lin Lout PARAMS:
+ R1=1
+ R2=1
+ C=1
+ K3=1
+ PkZ=1
R2 Lin N001 {R2}
R3 N001 Lout {PkZ}
C1 N001 N002 {C}
R1 N002 Lout {R1}
L1 N001 Lout {K3}
.ends Model1D

*======================================================================
* SPICE Model generated by Coilcraft
* Coilcraft Power Inductor Model
*======================================================================
* Model Parameters:
*   Valid Frequency Range Varies by Inductor
*   Ambient Temperature = 25 degC
*   DC Bias Current = 0 A
*   Frequency Dependent Inductor Model
*======================================================================
.subckt Model1A Lin Lout PARAMS:
+ R1=1
+ R2=1
+ C=1
+ K1=1
+ K2=1
+ K3=1
+ K4=1
+ K5=1
R2 N001 Lin {R2}
R1 Lout N002 {R1}
C1 N002 N001 {C}
G_Rvar2 N001 Lout LAPLACE { V(N001, Lout) } {1/K2/(-S*S/4/PI^2)^0.25}
G_Rvar1 N001 N003 LAPLACE { V(N001, N003) } {1/K1/(-S*S/4/PI^2)^0.25}
G_Lvar N003 Lout  LAPLACE { V(N003, Lout) } {1/(S*1e-6*({K3*1e6}-({K4}*LOG({K5}*(sqrt(-S*S)/(2*pi))))))}
*This large resistance to ground has been added to prevent a floating node error
R3 N003 0 100Meg
.ends Model1A


.subckt Coilcraft_Inductor Lin Lout
R1 Lout Lin 100Meg
.ends Coilcraft_Inductor
