*======================================================================
* SPICE Model generated by Coilcraft
* Coilcraft Part Number : XFL5015-221
* Inductance = 220nH
*======================================================================
* Model Parameters:
*   Valid Frequency Range = 0.1MHz-200MHz
*   Ambient Temperature = 25 degC
*   Inductor Frequency Model
*   Use model for Frequency Domain simulations
*======================================================================
.subckt XFL5015-221_freq port1 port2 PARAMS: Cpar=8.4pF Ind=0.22uH
X1 port1 port2 Model1A PARAMS:
+ R1=38.5
+ R2=0.0042
+ C= {Cpar}
+ K1=0.0000095
+ K2=0.033
+ K3= {Ind}
+ K4=0.0014
+ K5=0.001
+ L=1.944E-07
+ Is=12.7022
+ a=3.472
+ L_Z0=0
+ L_EL=0
+ L_F0=0E6
+ PkZ=234.520696
.ends XFL5015-221_freq

*======================================================================
* SPICE Model generated by Coilcraft
* Coilcraft Part Number : XFL5015-221
* Inductance = 220nH
*======================================================================
* Model Parameters:
*   Valid Frequency Range = 0.1MHz-200MHz
*   Ambient Temperature = 25 degC
*   Inductor Saturation Model
*   Use model for Time Domain simulations
*======================================================================
.subckt XFL5015-221_sat port1 port2 PARAMS: Cpar=7.776pF Ind=0.22uH
X1 port1 port2 Model1C PARAMS:
+ R1=38.5
+ R2=0.0042
+ C= {Cpar}
+ K1=0.0000095
+ K2=0.033
+ K3= {Ind}
+ K4=0.0014
+ K5=0.001
+ L=1.944E-07
+ Is=12.7022
+ a=3.472
+ L_Z0=0
+ L_EL=0
+ L_F0=0E6
+ PkZ=234.520696
.ends XFL5015-221_sat

*======================================================================
* SPICE Model generated by Coilcraft
* Coilcraft Part Number : XFL5015-421
* Inductance = 420nH
*======================================================================
* Model Parameters:
*   Valid Frequency Range = 0.1MHz-200MHz
*   Ambient Temperature = 25 degC
*   Inductor Frequency Model
*   Use model for Frequency Domain simulations
*======================================================================
.subckt XFL5015-421_freq port1 port2 PARAMS: Cpar=8.05pF Ind=0.42uH
X1 port1 port2 Model1A PARAMS:
+ R1=30
+ R2=0.00625
+ C= {Cpar}
+ K1=0.000075
+ K2=0.075
+ K3= {Ind}
+ K4=0.000001
+ K5=0.000001
+ L=3.838E-07
+ Is=10.8329
+ a=2.7307
+ L_Z0=0
+ L_EL=0
+ L_F0=0E6
+ PkZ=496.743236
.ends XFL5015-421_freq

*======================================================================
* SPICE Model generated by Coilcraft
* Coilcraft Part Number : XFL5015-421
* Inductance = 420nH
*======================================================================
* Model Parameters:
*   Valid Frequency Range = 0.1MHz-200MHz
*   Ambient Temperature = 25 degC
*   Inductor Saturation Model
*   Use model for Time Domain simulations
*======================================================================
.subckt XFL5015-421_sat port1 port2 PARAMS: Cpar=8.05pF Ind=0.42uH
X1 port1 port2 Model1C PARAMS:
+ R1=30
+ R2=0.00625
+ C= {Cpar}
+ K1=0.000075
+ K2=0.075
+ K3= {Ind}
+ K4=0.000001
+ K5=0.000001
+ L=3.838E-07
+ Is=10.8329
+ a=2.7307
+ L_Z0=0
+ L_EL=0
+ L_F0=0E6
+ PkZ=496.743236
.ends XFL5015-421_sat

*======================================================================
* SPICE Model generated by Coilcraft
* Coilcraft Part Number : XFL5015-681
* Inductance = 680nH
*======================================================================
* Model Parameters:
*   Valid Frequency Range = 0.1MHz-150MHz
*   Ambient Temperature = 25 degC
*   Inductor Frequency Model
*   Use model for Frequency Domain simulations
*======================================================================
.subckt XFL5015-681_freq port1 port2 PARAMS: Cpar=9.25pF Ind=0.68uH
X1 port1 port2 Model1A PARAMS:
+ R1=27.5
+ R2=0.00825
+ C= {Cpar}
+ K1=0.000001
+ K2=0.134
+ K3= {Ind}
+ K4=0.000001
+ K5=0.000001
+ L=5.924E-07
+ Is=9.9774
+ a=2.232
+ L_Z0=0
+ L_EL=0
+ L_F0=0E6
+ PkZ=764.696571
.ends XFL5015-681_freq

*======================================================================
* SPICE Model generated by Coilcraft
* Coilcraft Part Number : XFL5015-681
* Inductance = 680nH
*======================================================================
* Model Parameters:
*   Valid Frequency Range = 0.1MHz-150MHz
*   Ambient Temperature = 25 degC
*   Inductor Saturation Model
*   Use model for Time Domain simulations
*======================================================================
.subckt XFL5015-681_sat port1 port2 PARAMS: Cpar=9.25pF Ind=0.68uH
X1 port1 port2 Model1C PARAMS:
+ R1=27.5
+ R2=0.00825
+ C= {Cpar}
+ K1=0.000001
+ K2=0.134
+ K3= {Ind}
+ K4=0.000001
+ K5=0.000001
+ L=5.924E-07
+ Is=9.9774
+ a=2.232
+ L_Z0=0
+ L_EL=0
+ L_F0=0E6
+ PkZ=764.696571
.ends XFL5015-681_sat

*======================================================================
* SPICE Model generated by Coilcraft
* Coilcraft Part Number : XFL5015-122
* Inductance = 1.2uH
*======================================================================
* Model Parameters:
*   Valid Frequency Range = 0.1MHz-150MHz
*   Ambient Temperature = 25 degC
*   Inductor Frequency Model
*   Use model for Frequency Domain simulations
*======================================================================
.subckt XFL5015-122_freq port1 port2 PARAMS: Cpar=9.25pF Ind=1.2uH
X1 port1 port2 Model1A PARAMS:
+ R1=16.7
+ R2=0.0151
+ C= {Cpar}
+ K1=0.000181
+ K2=0.23
+ K3= {Ind}
+ K4=0.0092
+ K5=0.01
+ L=1.0415E-06
+ Is=7.3944
+ a=1.9053
+ L_Z0=0
+ L_EL=0
+ L_F0=0E6
+ PkZ=1304.72304
.ends XFL5015-122_freq

*======================================================================
* SPICE Model generated by Coilcraft
* Coilcraft Part Number : XFL5015-122
* Inductance = 1.2uH
*======================================================================
* Model Parameters:
*   Valid Frequency Range = 0.1MHz-150MHz
*   Ambient Temperature = 25 degC
*   Inductor Saturation Model
*   Use model for Time Domain simulations
*======================================================================
.subckt XFL5015-122_sat port1 port2 PARAMS: Cpar=8.323pF Ind=1.2uH
X1 port1 port2 Model1C PARAMS:
+ R1=16.7
+ R2=0.0151
+ C= {Cpar}
+ K1=0.000181
+ K2=0.23
+ K3= {Ind}
+ K4=0.0092
+ K5=0.01
+ L=1.0415E-06
+ Is=7.3944
+ a=1.9053
+ L_Z0=0
+ L_EL=0
+ L_F0=0E6
+ PkZ=1304.72304
.ends XFL5015-122_sat

*======================================================================
* SPICE Model generated by Coilcraft
* Coilcraft Part Number : XFL5015-152
* Inductance = 1.5uH
*======================================================================
* Model Parameters:
*   Valid Frequency Range = 0.1MHz-150MHz
*   Ambient Temperature = 25 degC
*   Inductor Frequency Model
*   Use model for Frequency Domain simulations
*======================================================================
.subckt XFL5015-152_freq port1 port2 PARAMS: Cpar=8.55pF Ind=1.5uH
X1 port1 port2 Model1A PARAMS:
+ R1=14
+ R2=0.0183
+ C= {Cpar}
+ K1=0.000181
+ K2=0.272
+ K3= {Ind}
+ K4=0.008
+ K5=0.000289
+ L=1.2743E-06
+ Is=7.214
+ a=1.8805
+ L_Z0=0
+ L_EL=0
+ L_F0=0E6
+ PkZ=1573.12599
.ends XFL5015-152_freq

*======================================================================
* SPICE Model generated by Coilcraft
* Coilcraft Part Number : XFL5015-152
* Inductance = 1.5uH
*======================================================================
* Model Parameters:
*   Valid Frequency Range = 0.1MHz-150MHz
*   Ambient Temperature = 25 degC
*   Inductor Saturation Model
*   Use model for Time Domain simulations
*======================================================================
.subckt XFL5015-152_sat port1 port2 PARAMS: Cpar=8.119pF Ind=1.5uH
X1 port1 port2 Model1C PARAMS:
+ R1=14
+ R2=0.0183
+ C= {Cpar}
+ K1=0.000181
+ K2=0.272
+ K3= {Ind}
+ K4=0.008
+ K5=0.000289
+ L=1.2743E-06
+ Is=7.214
+ a=1.8805
+ L_Z0=0
+ L_EL=0
+ L_F0=0E6
+ PkZ=1573.12599
.ends XFL5015-152_sat

*======================================================================
* SPICE Model generated by Coilcraft
* Coilcraft Part Number : XFL5015-222
* Inductance = 2.2uH
*======================================================================
* Model Parameters:
*   Valid Frequency Range = 0.1MHz-150MHz
*   Ambient Temperature = 25 degC
*   Inductor Frequency Model
*   Use model for Frequency Domain simulations
*======================================================================
.subckt XFL5015-222_freq port1 port2 PARAMS: Cpar=7.45pF Ind=2.2uH
X1 port1 port2 Model1A PARAMS:
+ R1=12.8
+ R2=0.02
+ C= {Cpar}
+ K1=0.0005
+ K2=0.456
+ K3= {Ind}
+ K4=0.008
+ K5=0.00289
+ L=2.0208E-06
+ Is=5.4412
+ a=1.7773
+ L_Z0=0
+ L_EL=0
+ L_F0=0E6
+ PkZ=2484.84719
.ends XFL5015-222_freq

*======================================================================
* SPICE Model generated by Coilcraft
* Coilcraft Part Number : XFL5015-222
* Inductance = 2.2uH
*======================================================================
* Model Parameters:
*   Valid Frequency Range = 0.1MHz-150MHz
*   Ambient Temperature = 25 degC
*   Inductor Saturation Model
*   Use model for Time Domain simulations
*======================================================================
.subckt XFL5015-222_sat port1 port2 PARAMS: Cpar=7.135pF Ind=2.2uH
X1 port1 port2 Model1C PARAMS:
+ R1=12.8
+ R2=0.02
+ C= {Cpar}
+ K1=0.0005
+ K2=0.456
+ K3= {Ind}
+ K4=0.008
+ K5=0.00289
+ L=2.0208E-06
+ Is=5.4412
+ a=1.7773
+ L_Z0=0
+ L_EL=0
+ L_F0=0E6
+ PkZ=2484.84719
.ends XFL5015-222_sat

*======================================================================
* SPICE Model generated by Coilcraft
* Coilcraft Part Number : XFL5018-222
* Inductance = 2.2uH
*======================================================================
* Model Parameters:
*   Valid Frequency Range = 0.1MHz-150MHz
*   Ambient Temperature = 25 degC
*   Inductor Frequency Model
*   Use model for Frequency Domain simulations
*======================================================================
.subckt XFL5018-222_freq port1 port2 PARAMS: Cpar=9.75pF Ind=2.2uH
X1 port1 port2 Model1A PARAMS:
+ R1=12
+ R2=0.0213
+ C= {Cpar}
+ K1=0.00025
+ K2=0.498
+ K3= {Ind}
+ K4=0.000001
+ K5=0.000001
+ L=2.239E-06
+ Is=5.0572
+ a=2.0673
+ L_Z0=0
+ L_EL=0
+ L_F0=0E6
+ PkZ=2486.40992
.ends XFL5018-222_freq

*======================================================================
* SPICE Model generated by Coilcraft
* Coilcraft Part Number : XFL5018-222
* Inductance = 2.2uH
*======================================================================
* Model Parameters:
*   Valid Frequency Range = 0.1MHz-150MHz
*   Ambient Temperature = 25 degC
*   Inductor Saturation Model
*   Use model for Time Domain simulations
*======================================================================
.subckt XFL5018-222_sat port1 port2 PARAMS: Cpar=9.75pF Ind=2.2uH
X1 port1 port2 Model1C PARAMS:
+ R1=12
+ R2=0.0213
+ C= {Cpar}
+ K1=0.00025
+ K2=0.498
+ K3= {Ind}
+ K4=0.000001
+ K5=0.000001
+ L=2.239E-06
+ Is=5.0572
+ a=2.0673
+ L_Z0=0
+ L_EL=0
+ L_F0=0E6
+ PkZ=2486.40992
.ends XFL5018-222_sat

*======================================================================
* SPICE Model generated by Coilcraft
* Coilcraft Part Number : XFL5018-332
* Inductance = 3.3uH
*======================================================================
* Model Parameters:
*   Valid Frequency Range = 0.1MHz-150MHz
*   Ambient Temperature = 25 degC
*   Inductor Frequency Model
*   Use model for Frequency Domain simulations
*======================================================================
.subckt XFL5018-332_freq port1 port2 PARAMS: Cpar=10.2pF Ind=3.3uH
X1 port1 port2 Model1A PARAMS:
+ R1=10
+ R2=0.032
+ C= {Cpar}
+ K1=0.00005
+ K2=0.897
+ K3= {Ind}
+ K4=0.000001
+ K5=0.000001
+ L=3.2833E-06
+ Is=4.6018
+ a=1.7279
+ L_Z0=0
+ L_EL=0
+ L_F0=0E6
+ PkZ=4088.99599
.ends XFL5018-332_freq

*======================================================================
* SPICE Model generated by Coilcraft
* Coilcraft Part Number : XFL5018-332
* Inductance = 3.3uH
*======================================================================
* Model Parameters:
*   Valid Frequency Range = 0.1MHz-150MHz
*   Ambient Temperature = 25 degC
*   Inductor Saturation Model
*   Use model for Time Domain simulations
*======================================================================
.subckt XFL5018-332_sat port1 port2 PARAMS: Cpar=10.2pF Ind=3.3uH
X1 port1 port2 Model1C PARAMS:
+ R1=10
+ R2=0.032
+ C= {Cpar}
+ K1=0.00005
+ K2=0.897
+ K3= {Ind}
+ K4=0.000001
+ K5=0.000001
+ L=3.2833E-06
+ Is=4.6018
+ a=1.7279
+ L_Z0=0
+ L_EL=0
+ L_F0=0E6
+ PkZ=4088.99599
.ends XFL5018-332_sat

*======================================================================
* SPICE Model generated by Coilcraft
* Coilcraft Saturation Inductor Model
*======================================================================
* Model Parameters:
*   Valid Frequency Range Varies by Inductor
*   Ambient Temperature = 25 degC
*   Current Saturable Inductor Model
*======================================================================
.subckt Model1C Lin Lout PARAMS:
+ R1=1
+ R2=1
+ C=1
+ L=1
+ Is=1
+ a=1
+ PkZ=94.2 * {L} *1e6
R2 Lin N001 {R2}
R3 N001 Lout {PkZ}
C1 N001 N002 {C}
R1 N002 Lout {R1}
L1 N001 Lout flux={L*Is}*pwrs(tanh(pwrs((x/{Is}),{a})),{1/a})
.ends Model1C





*======================================================================
* SPICE Model generated by Coilcraft
* Coilcraft Power Inductor Model
*======================================================================
* Model Parameters:
*   Valid Frequency Range Varies by Inductor
*   Ambient Temperature = 25 degC
*   DC Bias Current = 0 A
*   Frequency Dependent Inductor Model
*======================================================================
.subckt Model1A Lin Lout PARAMS:
+ R1=1
+ R2=1
+ C=1
+ K1=1
+ K2=1
+ K3=1
+ K4=1
+ K5=1
R2 N001 Lin {R2}
R1 Lout N002 {R1}
C1 N002 N001 {C}
G_Rvar2 N001 Lout LAPLACE { V(N001, Lout) } {1/K2/(-S*S/4/PI^2)^0.25}
G_Rvar1 N001 N003 LAPLACE { V(N001, N003) } {1/K1/(-S*S/4/PI^2)^0.25}
G_Lvar N003 Lout  LAPLACE { V(N003, Lout) } {1/(S*1e-6*({K3*1e6}-({K4}*LOG({K5}*(sqrt(-S*S)/(2*pi))))))}
*This large resistance to ground has been added to prevent a floating node error
R3 N003 0 100Meg
.ends Model1A


.subckt Coilcraft_Inductor Lin Lout
R1 Lout Lin 100Meg
.ends Coilcraft_Inductor
