*======================================================================
* SPICE Model generated by Coilcraft
* Coilcraft Part Number : XFL6012-181
* Inductance = 180nH
*======================================================================
* Model Parameters:
*   Valid Frequency Range = 0.1MHz-250MHz
*   Ambient Temperature = 25 degC
*   Inductor Frequency Model
*   Use model for Frequency Domain simulations
*======================================================================
.subckt XFL6012-181_freq port1 port2 PARAMS: Cpar=9.74pF Ind=0.18uH
X1 port1 port2 Model1A PARAMS:
+ R1=20
+ R2=0.00706
+ C= {Cpar}
+ K1=0.0000418
+ K2=0.035
+ K3= {Ind}
+ K4=0.0007
+ K5=0.0075
+ L=1.826E-07
+ Is=19.1918
+ a=3.0847
+ L_Z0=0
+ L_EL=0
+ L_F0=0E6
+ PkZ=268.922561
.ends XFL6012-181_freq

*======================================================================
* SPICE Model generated by Coilcraft
* Coilcraft Part Number : XFL6012-181
* Inductance = 180nH
*======================================================================
* Model Parameters:
*   Valid Frequency Range = 0.1MHz-250MHz
*   Ambient Temperature = 25 degC
*   Inductor Saturation Model
*   Use model for Time Domain simulations
*======================================================================
.subckt XFL6012-181_sat port1 port2 PARAMS: Cpar=9.221pF Ind=0.18uH
X1 port1 port2 Model1C PARAMS:
+ R1=20
+ R2=0.00706
+ C= {Cpar}
+ K1=0.0000418
+ K2=0.035
+ K3= {Ind}
+ K4=0.0007
+ K5=0.0075
+ L=1.826E-07
+ Is=19.1918
+ a=3.0847
+ L_Z0=0
+ L_EL=0
+ L_F0=0E6
+ PkZ=268.922561
.ends XFL6012-181_sat

*======================================================================
* SPICE Model generated by Coilcraft
* Coilcraft Part Number : XFL6012-391
* Inductance = 390nH
*======================================================================
* Model Parameters:
*   Valid Frequency Range = 0.1MHz-250MHz
*   Ambient Temperature = 25 degC
*   Inductor Frequency Model
*   Use model for Frequency Domain simulations
*======================================================================
.subckt XFL6012-391_freq port1 port2 PARAMS: Cpar=13.2pF Ind=0.39uH
X1 port1 port2 Model1A PARAMS:
+ R1=14.1
+ R2=0.0105
+ C= {Cpar}
+ K1=0.0000997
+ K2=0.087
+ K3= {Ind}
+ K4=0.000001
+ K5=0.000001
+ L=3.82E-07
+ Is=14.458
+ a=2.4061
+ L_Z0=0
+ L_EL=0
+ L_F0=0E6
+ PkZ=533.314425
.ends XFL6012-391_freq

*======================================================================
* SPICE Model generated by Coilcraft
* Coilcraft Part Number : XFL6012-391
* Inductance = 390nH
*======================================================================
* Model Parameters:
*   Valid Frequency Range = 0.1MHz-250MHz
*   Ambient Temperature = 25 degC
*   Inductor Saturation Model
*   Use model for Time Domain simulations
*======================================================================
.subckt XFL6012-391_sat port1 port2 PARAMS: Cpar=13.2pF Ind=0.39uH
X1 port1 port2 Model1C PARAMS:
+ R1=14.1
+ R2=0.0105
+ C= {Cpar}
+ K1=0.0000997
+ K2=0.087
+ K3= {Ind}
+ K4=0.000001
+ K5=0.000001
+ L=3.82E-07
+ Is=14.458
+ a=2.4061
+ L_Z0=0
+ L_EL=0
+ L_F0=0E6
+ PkZ=533.314425
.ends XFL6012-391_sat

*======================================================================
* SPICE Model generated by Coilcraft
* Coilcraft Part Number : XFL6012-601
* Inductance = 600nH
*======================================================================
* Model Parameters:
*   Valid Frequency Range = 0.1MHz-200MHz
*   Ambient Temperature = 25 degC
*   Inductor Frequency Model
*   Use model for Frequency Domain simulations
*======================================================================
.subckt XFL6012-601_freq port1 port2 PARAMS: Cpar=12.8pF Ind=0.6uH
X1 port1 port2 Model1A PARAMS:
+ R1=12.3
+ R2=0.0135
+ C= {Cpar}
+ K1=0.00005
+ K2=0.164
+ K3= {Ind}
+ K4=0.000001
+ K5=0.000001
+ L=5.808E-07
+ Is=13.1598
+ a=1.7006
+ L_Z0=0
+ L_EL=0
+ L_F0=0E6
+ PkZ=930.805303
.ends XFL6012-601_freq

*======================================================================
* SPICE Model generated by Coilcraft
* Coilcraft Part Number : XFL6012-601
* Inductance = 600nH
*======================================================================
* Model Parameters:
*   Valid Frequency Range = 0.1MHz-200MHz
*   Ambient Temperature = 25 degC
*   Inductor Saturation Model
*   Use model for Time Domain simulations
*======================================================================
.subckt XFL6012-601_sat port1 port2 PARAMS: Cpar=12.8pF Ind=0.6uH
X1 port1 port2 Model1C PARAMS:
+ R1=12.3
+ R2=0.0135
+ C= {Cpar}
+ K1=0.00005
+ K2=0.164
+ K3= {Ind}
+ K4=0.000001
+ K5=0.000001
+ L=5.808E-07
+ Is=13.1598
+ a=1.7006
+ L_Z0=0
+ L_EL=0
+ L_F0=0E6
+ PkZ=930.805303
.ends XFL6012-601_sat

*======================================================================
* SPICE Model generated by Coilcraft
* Coilcraft Part Number : XFL6012-801
* Inductance = 800nH
*======================================================================
* Model Parameters:
*   Valid Frequency Range = 0.1MHz-200MHz
*   Ambient Temperature = 25 degC
*   Inductor Frequency Model
*   Use model for Frequency Domain simulations
*======================================================================
.subckt XFL6012-801_freq port1 port2 PARAMS: Cpar=13.3pF Ind=0.8uH
X1 port1 port2 Model1A PARAMS:
+ R1=11.6
+ R2=0.018
+ C= {Cpar}
+ K1=0.000075
+ K2=0.216
+ K3= {Ind}
+ K4=0.000001
+ K5=0.000001
+ L=7.984E-07
+ Is=11.6477
+ a=1.5345
+ L_Z0=0
+ L_EL=0
+ L_F0=0E6
+ PkZ=1157.4785
.ends XFL6012-801_freq

*======================================================================
* SPICE Model generated by Coilcraft
* Coilcraft Part Number : XFL6012-801
* Inductance = 800nH
*======================================================================
* Model Parameters:
*   Valid Frequency Range = 0.1MHz-200MHz
*   Ambient Temperature = 25 degC
*   Inductor Saturation Model
*   Use model for Time Domain simulations
*======================================================================
.subckt XFL6012-801_sat port1 port2 PARAMS: Cpar=13.3pF Ind=0.8uH
X1 port1 port2 Model1C PARAMS:
+ R1=11.6
+ R2=0.018
+ C= {Cpar}
+ K1=0.000075
+ K2=0.216
+ K3= {Ind}
+ K4=0.000001
+ K5=0.000001
+ L=7.984E-07
+ Is=11.6477
+ a=1.5345
+ L_Z0=0
+ L_EL=0
+ L_F0=0E6
+ PkZ=1157.4785
.ends XFL6012-801_sat

*======================================================================
* SPICE Model generated by Coilcraft
* Coilcraft Part Number : XFL6012-102
* Inductance = 1uH
*======================================================================
* Model Parameters:
*   Valid Frequency Range = 0.1MHz-150MHz
*   Ambient Temperature = 25 degC
*   Inductor Frequency Model
*   Use model for Frequency Domain simulations
*======================================================================
.subckt XFL6012-102_freq port1 port2 PARAMS: Cpar=10.8pF Ind=1uH
X1 port1 port2 Model1A PARAMS:
+ R1=9.9
+ R2=0.0219
+ C= {Cpar}
+ K1=0.0001
+ K2=0.24
+ K3= {Ind}
+ K4=0.005
+ K5=0.04
+ L=9.985E-07
+ Is=9.8313
+ a=1.5238
+ L_Z0=0
+ L_EL=0
+ L_F0=0E6
+ PkZ=1406.49398
.ends XFL6012-102_freq

*======================================================================
* SPICE Model generated by Coilcraft
* Coilcraft Part Number : XFL6012-102
* Inductance = 1uH
*======================================================================
* Model Parameters:
*   Valid Frequency Range = 0.1MHz-150MHz
*   Ambient Temperature = 25 degC
*   Inductor Saturation Model
*   Use model for Time Domain simulations
*======================================================================
.subckt XFL6012-102_sat port1 port2 PARAMS: Cpar=10.018pF Ind=1uH
X1 port1 port2 Model1C PARAMS:
+ R1=9.9
+ R2=0.0219
+ C= {Cpar}
+ K1=0.0001
+ K2=0.24
+ K3= {Ind}
+ K4=0.005
+ K5=0.04
+ L=9.985E-07
+ Is=9.8313
+ a=1.5238
+ L_Z0=0
+ L_EL=0
+ L_F0=0E6
+ PkZ=1406.49398
.ends XFL6012-102_sat

*======================================================================
* SPICE Model generated by Coilcraft
* Coilcraft Saturation Inductor Model
*======================================================================
* Model Parameters:
*   Valid Frequency Range Varies by Inductor
*   Ambient Temperature = 25 degC
*   Current Saturable Inductor Model
*======================================================================
.subckt Model1C Lin Lout PARAMS:
+ R1=1
+ R2=1
+ C=1
+ L=1
+ Is=1
+ a=1
+ PkZ=94.2 * {L} *1e6
R2 Lin N001 {R2}
R3 N001 Lout {PkZ}
C1 N001 N002 {C}
R1 N002 Lout {R1}
L1 N001 Lout flux={L*Is}*pwrs(tanh(pwrs((x/{Is}),{a})),{1/a})
.ends Model1C





*======================================================================
* SPICE Model generated by Coilcraft
* Coilcraft Power Inductor Model
*======================================================================
* Model Parameters:
*   Valid Frequency Range Varies by Inductor
*   Ambient Temperature = 25 degC
*   DC Bias Current = 0 A
*   Frequency Dependent Inductor Model
*======================================================================
.subckt Model1A Lin Lout PARAMS:
+ R1=1
+ R2=1
+ C=1
+ K1=1
+ K2=1
+ K3=1
+ K4=1
+ K5=1
R2 N001 Lin {R2}
R1 Lout N002 {R1}
C1 N002 N001 {C}
G_Rvar2 N001 Lout LAPLACE { V(N001, Lout) } {1/K2/(-S*S/4/PI^2)^0.25}
G_Rvar1 N001 N003 LAPLACE { V(N001, N003) } {1/K1/(-S*S/4/PI^2)^0.25}
G_Lvar N003 Lout  LAPLACE { V(N003, Lout) } {1/(S*1e-6*({K3*1e6}-({K4}*LOG({K5}*(sqrt(-S*S)/(2*pi))))))}
*This large resistance to ground has been added to prevent a floating node error
R3 N003 0 100Meg
.ends Model1A


.subckt Coilcraft_Inductor Lin Lout
R1 Lout Lin 100Meg
.ends Coilcraft_Inductor
