*======================================================================
* SPICE Model generated by Coilcraft
* Coilcraft Part Number : XFL7015-251
* Inductance = 250nH
*======================================================================
* Model Parameters:
*   Valid Frequency Range = 0.1MHz-120MHz
*   Ambient Temperature = 25 degC
*   Inductor Frequency Model
*   Use model for Frequency Domain simulations
*======================================================================
.subckt XFL7015-251_freq port1 port2 PARAMS: Cpar=17.2pF Ind=0.241uH
X1 port1 port2 Model1A PARAMS:
+ R1=12.5
+ R2=0.0039
+ C= {Cpar}
+ K1=0.000001
+ K2=0.0416
+ K3= {Ind}
+ K4=0.0039
+ K5=0.000091
+ L=2.324E-07
+ Is=17.6875
+ a=3.5578
+ L_Z0=0
+ L_EL=0
+ L_F0=0E6
+ PkZ=274.210621
.ends XFL7015-251_freq

*======================================================================
* SPICE Model generated by Coilcraft
* Coilcraft Part Number : XFL7015-251
* Inductance = 250nH
*======================================================================
* Model Parameters:
*   Valid Frequency Range = 0.1MHz-120MHz
*   Ambient Temperature = 25 degC
*   Inductor Saturation Model
*   Use model for Time Domain simulations
*======================================================================
.subckt XFL7015-251_sat port1 port2 PARAMS: Cpar=14.731pF Ind=0.241uH
X1 port1 port2 Model1C PARAMS:
+ R1=12.5
+ R2=0.0039
+ C= {Cpar}
+ K1=0.000001
+ K2=0.0416
+ K3= {Ind}
+ K4=0.0039
+ K5=0.000091
+ L=2.324E-07
+ Is=17.6875
+ a=3.5578
+ L_Z0=0
+ L_EL=0
+ L_F0=0E6
+ PkZ=274.210621
.ends XFL7015-251_sat

*======================================================================
* SPICE Model generated by Coilcraft
* Coilcraft Part Number : XFL7015-471
* Inductance = 470nH
*======================================================================
* Model Parameters:
*   Valid Frequency Range = 0.1MHz-100MHz
*   Ambient Temperature = 25 degC
*   Inductor Frequency Model
*   Use model for Frequency Domain simulations
*======================================================================
.subckt XFL7015-471_freq port1 port2 PARAMS: Cpar=16.8pF Ind=0.47uH
X1 port1 port2 Model1A PARAMS:
+ R1=13.5
+ R2=0.0058
+ C= {Cpar}
+ K1=0.000001
+ K2=0.105
+ K3= {Ind}
+ K4=0.000001
+ K5=0.000001
+ L=3.88E-07
+ Is=14.9143
+ a=3.3845
+ L_Z0=0
+ L_EL=0
+ L_F0=0E6
+ PkZ=572.874411
.ends XFL7015-471_freq

*======================================================================
* SPICE Model generated by Coilcraft
* Coilcraft Part Number : XFL7015-471
* Inductance = 470nH
*======================================================================
* Model Parameters:
*   Valid Frequency Range = 0.1MHz-100MHz
*   Ambient Temperature = 25 degC
*   Inductor Saturation Model
*   Use model for Time Domain simulations
*======================================================================
.subckt XFL7015-471_sat port1 port2 PARAMS: Cpar=16.8pF Ind=0.47uH
X1 port1 port2 Model1C PARAMS:
+ R1=13.5
+ R2=0.0058
+ C= {Cpar}
+ K1=0.000001
+ K2=0.105
+ K3= {Ind}
+ K4=0.000001
+ K5=0.000001
+ L=3.88E-07
+ Is=14.9143
+ a=3.3845
+ L_Z0=0
+ L_EL=0
+ L_F0=0E6
+ PkZ=572.874411
.ends XFL7015-471_sat

*======================================================================
* SPICE Model generated by Coilcraft
* Coilcraft Part Number : XFL7015-681
* Inductance = 680nH
*======================================================================
* Model Parameters:
*   Valid Frequency Range = 0.1MHz-100MHz
*   Ambient Temperature = 25 degC
*   Inductor Frequency Model
*   Use model for Frequency Domain simulations
*======================================================================
.subckt XFL7015-681_freq port1 port2 PARAMS: Cpar=13pF Ind=0.68uH
X1 port1 port2 Model1A PARAMS:
+ R1=11
+ R2=0.0077
+ C= {Cpar}
+ K1=0.00001
+ K2=0.16
+ K3= {Ind}
+ K4=0.0135
+ K5=0.0001
+ L=6.341E-07
+ Is=15.5228
+ a=1.5873
+ L_Z0=0
+ L_EL=0
+ L_F0=0E6
+ PkZ=934.499577
.ends XFL7015-681_freq

*======================================================================
* SPICE Model generated by Coilcraft
* Coilcraft Part Number : XFL7015-681
* Inductance = 680nH
*======================================================================
* Model Parameters:
*   Valid Frequency Range = 0.1MHz-100MHz
*   Ambient Temperature = 25 degC
*   Inductor Saturation Model
*   Use model for Time Domain simulations
*======================================================================
.subckt XFL7015-681_sat port1 port2 PARAMS: Cpar=10.784pF Ind=0.68uH
X1 port1 port2 Model1C PARAMS:
+ R1=11
+ R2=0.0077
+ C= {Cpar}
+ K1=0.00001
+ K2=0.16
+ K3= {Ind}
+ K4=0.0135
+ K5=0.0001
+ L=6.341E-07
+ Is=15.5228
+ a=1.5873
+ L_Z0=0
+ L_EL=0
+ L_F0=0E6
+ PkZ=934.499577
.ends XFL7015-681_sat

*======================================================================
* SPICE Model generated by Coilcraft
* Coilcraft Part Number : XFL7015-102
* Inductance = 1uH
*======================================================================
* Model Parameters:
*   Valid Frequency Range = 0.1MHz-100MHz
*   Ambient Temperature = 25 degC
*   Inductor Frequency Model
*   Use model for Frequency Domain simulations
*======================================================================
.subckt XFL7015-102_freq port1 port2 PARAMS: Cpar=14.7pF Ind=1uH
X1 port1 port2 Model1A PARAMS:
+ R1=9.5
+ R2=0.0136
+ C= {Cpar}
+ K1=0.00006
+ K2=0.26
+ K3= {Ind}
+ K4=0.0135
+ K5=0.0001
+ L=9.493E-07
+ Is=14.4695
+ a=1.3151
+ L_Z0=0
+ L_EL=0
+ L_F0=0E6
+ PkZ=1345.54243
.ends XFL7015-102_freq

*======================================================================
* SPICE Model generated by Coilcraft
* Coilcraft Part Number : XFL7015-102
* Inductance = 1uH
*======================================================================
* Model Parameters:
*   Valid Frequency Range = 0.1MHz-100MHz
*   Ambient Temperature = 25 degC
*   Inductor Saturation Model
*   Use model for Time Domain simulations
*======================================================================
.subckt XFL7015-102_sat port1 port2 PARAMS: Cpar=13.047pF Ind=1uH
X1 port1 port2 Model1C PARAMS:
+ R1=9.5
+ R2=0.0136
+ C= {Cpar}
+ K1=0.00006
+ K2=0.26
+ K3= {Ind}
+ K4=0.0135
+ K5=0.0001
+ L=9.493E-07
+ Is=14.4695
+ a=1.3151
+ L_Z0=0
+ L_EL=0
+ L_F0=0E6
+ PkZ=1345.54243
.ends XFL7015-102_sat

*======================================================================
* SPICE Model generated by Coilcraft
* Coilcraft Part Number : XFL7015-152
* Inductance = 1.5uH
*======================================================================
* Model Parameters:
*   Valid Frequency Range = 0.1MHz-100MHz
*   Ambient Temperature = 25 degC
*   Inductor Frequency Model
*   Use model for Frequency Domain simulations
*======================================================================
.subckt XFL7015-152_freq port1 port2 PARAMS: Cpar=14pF Ind=1.5uH
X1 port1 port2 Model1A PARAMS:
+ R1=10.5
+ R2=0.0183
+ C= {Cpar}
+ K1=0.00006
+ K2=0.362
+ K3= {Ind}
+ K4=0.0135
+ K5=0.075
+ L=1.3482E-06
+ Is=11.8825
+ a=1.4656
+ L_Z0=0
+ L_EL=0
+ L_F0=0E6
+ PkZ=1756.87058
.ends XFL7015-152_freq

*======================================================================
* SPICE Model generated by Coilcraft
* Coilcraft Part Number : XFL7015-152
* Inductance = 1.5uH
*======================================================================
* Model Parameters:
*   Valid Frequency Range = 0.1MHz-100MHz
*   Ambient Temperature = 25 degC
*   Inductor Saturation Model
*   Use model for Time Domain simulations
*======================================================================
.subckt XFL7015-152_sat port1 port2 PARAMS: Cpar=12.139pF Ind=1.5uH
X1 port1 port2 Model1C PARAMS:
+ R1=10.5
+ R2=0.0183
+ C= {Cpar}
+ K1=0.00006
+ K2=0.362
+ K3= {Ind}
+ K4=0.0135
+ K5=0.075
+ L=1.3482E-06
+ Is=11.8825
+ a=1.4656
+ L_Z0=0
+ L_EL=0
+ L_F0=0E6
+ PkZ=1756.87058
.ends XFL7015-152_sat

*======================================================================
* SPICE Model generated by Coilcraft
* Coilcraft Saturation Inductor Model
*======================================================================
* Model Parameters:
*   Valid Frequency Range Varies by Inductor
*   Ambient Temperature = 25 degC
*   Current Saturable Inductor Model
*======================================================================
.subckt Model1C Lin Lout PARAMS:
+ R1=1
+ R2=1
+ C=1
+ L=1
+ Is=1
+ a=1
+ PkZ=94.2 * {L} *1e6
R2 Lin N001 {R2}
R3 N001 Lout {PkZ}
C1 N001 N002 {C}
R1 N002 Lout {R1}
L1 N001 Lout flux={L*Is}*pwrs(tanh(pwrs((x/{Is}),{a})),{1/a})
.ends Model1C





*======================================================================
* SPICE Model generated by Coilcraft
* Coilcraft Power Inductor Model
*======================================================================
* Model Parameters:
*   Valid Frequency Range Varies by Inductor
*   Ambient Temperature = 25 degC
*   DC Bias Current = 0 A
*   Frequency Dependent Inductor Model
*======================================================================
.subckt Model1A Lin Lout PARAMS:
+ R1=1
+ R2=1
+ C=1
+ K1=1
+ K2=1
+ K3=1
+ K4=1
+ K5=1
R2 N001 Lin {R2}
R1 Lout N002 {R1}
C1 N002 N001 {C}
G_Rvar2 N001 Lout LAPLACE { V(N001, Lout) } {1/K2/(-S*S/4/PI^2)^0.25}
G_Rvar1 N001 N003 LAPLACE { V(N001, N003) } {1/K1/(-S*S/4/PI^2)^0.25}
G_Lvar N003 Lout  LAPLACE { V(N003, Lout) } {1/(S*1e-6*({K3*1e6}-({K4}*LOG({K5}*(sqrt(-S*S)/(2*pi))))))}
*This large resistance to ground has been added to prevent a floating node error
R3 N003 0 100Meg
.ends Model1A


.subckt Coilcraft_Inductor Lin Lout
R1 Lout Lin 100Meg
.ends Coilcraft_Inductor
