*======================================================================
* SPICE Model generated by Coilcraft
* Coilcraft Part Number : XGL1313-152
* Inductance = 1.5uH
*======================================================================
* Model Parameters:
*   Valid Frequency Range = 0.1MHz-100MHz
*   Ambient Temperature = 25 degC
*   Inductor Frequency Model
*   Use model for Frequency Domain simulations
*======================================================================
.subckt XGL1313-152_freq port1 port2 PARAMS: Cpar=20pF Ind=1.5uH
X1 port1 port2 Model1A PARAMS:
+ R1=5
+ R2=0.001
+ C= {Cpar}
+ K1=0.000001
+ K2=0.14
+ K3= {Ind}
+ K4=0.000001
+ K5=0.000001
+ L=0
+ Is=0
+ a=0
+ L_Z0=0
+ L_EL=0
+ L_F0=0E6
+ PkZ=718.496787
.ends XGL1313-152_freq

*======================================================================
* SPICE Model generated by Coilcraft
* Coilcraft Part Number : XGL1313-152
* Inductance = 1.5uH
*======================================================================
* Model Parameters:
*   Valid Frequency Range = 0.1MHz-100MHz
*   Ambient Temperature = 25 degC
*   Inductor Impedance Model
*   Use model for Time Domain simulations
*======================================================================
.subckt XGL1313-152_imp port1 port2 PARAMS: Cpar=20pF Ind=1.5uH
X1 port1 port2 Model1D PARAMS:
+ R1=5
+ R2=0.001
+ C= {Cpar}
+ K1=0.000001
+ K2=0.14
+ K3= {Ind}
+ K4=0.000001
+ K5=0.000001
+ L=0
+ Is=0
+ a=0
+ L_Z0=0
+ L_EL=0
+ L_F0=0E6
+ PkZ=718.496787
.ends XGL1313-152_imp

*======================================================================
* SPICE Model generated by Coilcraft
* Coilcraft Part Number : XGL1313-222
* Inductance = 2.2uH
*======================================================================
* Model Parameters:
*   Valid Frequency Range = 0.1MHz-100MHz
*   Ambient Temperature = 25 degC
*   Inductor Frequency Model
*   Use model for Frequency Domain simulations
*======================================================================
.subckt XGL1313-222_freq port1 port2 PARAMS: Cpar=22pF Ind=2.2uH
X1 port1 port2 Model1A PARAMS:
+ R1=6
+ R2=0.0014
+ C= {Cpar}
+ K1=0.000001
+ K2=0.21
+ K3= {Ind}
+ K4=0.000001
+ K5=0.000001
+ L=0
+ Is=0
+ a=0
+ L_Z0=0
+ L_EL=0
+ L_F0=0E6
+ PkZ=947.312061
.ends XGL1313-222_freq

*======================================================================
* SPICE Model generated by Coilcraft
* Coilcraft Part Number : XGL1313-222
* Inductance = 2.2uH
*======================================================================
* Model Parameters:
*   Valid Frequency Range = 0.1MHz-100MHz
*   Ambient Temperature = 25 degC
*   Inductor Impedance Model
*   Use model for Time Domain simulations
*======================================================================
.subckt XGL1313-222_imp port1 port2 PARAMS: Cpar=22pF Ind=2.2uH
X1 port1 port2 Model1D PARAMS:
+ R1=6
+ R2=0.0014
+ C= {Cpar}
+ K1=0.000001
+ K2=0.21
+ K3= {Ind}
+ K4=0.000001
+ K5=0.000001
+ L=0
+ Is=0
+ a=0
+ L_Z0=0
+ L_EL=0
+ L_F0=0E6
+ PkZ=947.312061
.ends XGL1313-222_imp

*======================================================================
* SPICE Model generated by Coilcraft
* Coilcraft Part Number : XGL1313-332
* Inductance = 3.3uH
*======================================================================
* Model Parameters:
*   Valid Frequency Range = 0.1MHz-100MHz
*   Ambient Temperature = 25 degC
*   Inductor Frequency Model
*   Use model for Frequency Domain simulations
*======================================================================
.subckt XGL1313-332_freq port1 port2 PARAMS: Cpar=21pF Ind=3.3uH
X1 port1 port2 Model1A PARAMS:
+ R1=5
+ R2=0.002
+ C= {Cpar}
+ K1=0.000001
+ K2=0.34
+ K3= {Ind}
+ K4=0.000001
+ K5=0.000001
+ L=3.5867E-06
+ Is=79.3653
+ a=0.7673
+ L_Z0=0
+ L_EL=0
+ L_F0=0E6
+ PkZ=1419.45051
.ends XGL1313-332_freq

*======================================================================
* SPICE Model generated by Coilcraft
* Coilcraft Part Number : XGL1313-332
* Inductance = 3.3uH
*======================================================================
* Model Parameters:
*   Valid Frequency Range = 0.1MHz-100MHz
*   Ambient Temperature = 25 degC
*   Inductor Saturation Model
*   Use model for Time Domain simulations
*======================================================================
.subckt XGL1313-332_sat port1 port2 PARAMS: Cpar=21pF Ind=3.3uH
X1 port1 port2 Model1C PARAMS:
+ R1=5
+ R2=0.002
+ C= {Cpar}
+ K1=0.000001
+ K2=0.34
+ K3= {Ind}
+ K4=0.000001
+ K5=0.000001
+ L=3.5867E-06
+ Is=79.3653
+ a=0.7673
+ L_Z0=0
+ L_EL=0
+ L_F0=0E6
+ PkZ=1419.45051
.ends XGL1313-332_sat

*======================================================================
* SPICE Model generated by Coilcraft
* Coilcraft Part Number : XGL1313-472
* Inductance = 4.7uH
*======================================================================
* Model Parameters:
*   Valid Frequency Range = 0.1MHz-100MHz
*   Ambient Temperature = 25 degC
*   Inductor Frequency Model
*   Use model for Frequency Domain simulations
*======================================================================
.subckt XGL1313-472_freq port1 port2 PARAMS: Cpar=23pF Ind=4.7uH
X1 port1 port2 Model1A PARAMS:
+ R1=4
+ R2=0.0025
+ C= {Cpar}
+ K1=0.000001
+ K2=0.44
+ K3= {Ind}
+ K4=0.000001
+ K5=0.000001
+ L=4.586E-06
+ Is=65.9595
+ a=0.788
+ L_Z0=0
+ L_EL=0
+ L_F0=0E6
+ PkZ=1665.33207
.ends XGL1313-472_freq

*======================================================================
* SPICE Model generated by Coilcraft
* Coilcraft Part Number : XGL1313-472
* Inductance = 4.7uH
*======================================================================
* Model Parameters:
*   Valid Frequency Range = 0.1MHz-100MHz
*   Ambient Temperature = 25 degC
*   Inductor Saturation Model
*   Use model for Time Domain simulations
*======================================================================
.subckt XGL1313-472_sat port1 port2 PARAMS: Cpar=23pF Ind=4.7uH
X1 port1 port2 Model1C PARAMS:
+ R1=4
+ R2=0.0025
+ C= {Cpar}
+ K1=0.000001
+ K2=0.44
+ K3= {Ind}
+ K4=0.000001
+ K5=0.000001
+ L=4.586E-06
+ Is=65.9595
+ a=0.788
+ L_Z0=0
+ L_EL=0
+ L_F0=0E6
+ PkZ=1665.33207
.ends XGL1313-472_sat

*======================================================================
* SPICE Model generated by Coilcraft
* Coilcraft Part Number : XGL1313-682
* Inductance = 6.8uH
*======================================================================
* Model Parameters:
*   Valid Frequency Range = 0.1MHz-75MHz
*   Ambient Temperature = 25 degC
*   Inductor Frequency Model
*   Use model for Frequency Domain simulations
*======================================================================
.subckt XGL1313-682_freq port1 port2 PARAMS: Cpar=27pF Ind=6.8uH
X1 port1 port2 Model1A PARAMS:
+ R1=5
+ R2=0.0038
+ C= {Cpar}
+ K1=0.00016
+ K2=0.67
+ K3= {Ind}
+ K4=0.000001
+ K5=0.000001
+ L=7.2589E-06
+ Is=49.664
+ a=0.8057
+ L_Z0=0
+ L_EL=0
+ L_F0=0E6
+ PkZ=2185.68436
.ends XGL1313-682_freq

*======================================================================
* SPICE Model generated by Coilcraft
* Coilcraft Part Number : XGL1313-682
* Inductance = 6.8uH
*======================================================================
* Model Parameters:
*   Valid Frequency Range = 0.1MHz-75MHz
*   Ambient Temperature = 25 degC
*   Inductor Saturation Model
*   Use model for Time Domain simulations
*======================================================================
.subckt XGL1313-682_sat port1 port2 PARAMS: Cpar=27pF Ind=6.8uH
X1 port1 port2 Model1C PARAMS:
+ R1=5
+ R2=0.0038
+ C= {Cpar}
+ K1=0.00016
+ K2=0.67
+ K3= {Ind}
+ K4=0.000001
+ K5=0.000001
+ L=7.2589E-06
+ Is=49.664
+ a=0.8057
+ L_Z0=0
+ L_EL=0
+ L_F0=0E6
+ PkZ=2185.68436
.ends XGL1313-682_sat

*======================================================================
* SPICE Model generated by Coilcraft
* Coilcraft Part Number : XGL1313-822
* Inductance = 8.2uH
*======================================================================
* Model Parameters:
*   Valid Frequency Range = 0.1MHz-50MHz
*   Ambient Temperature = 25 degC
*   Inductor Frequency Model
*   Use model for Frequency Domain simulations
*======================================================================
.subckt XGL1313-822_freq port1 port2 PARAMS: Cpar=23pF Ind=8.2uH
X1 port1 port2 Model1A PARAMS:
+ R1=4
+ R2=0.0044
+ C= {Cpar}
+ K1=0.00012
+ K2=0.76
+ K3= {Ind}
+ K4=0.000001
+ K5=0.000001
+ L=8.1731E-06
+ Is=48.4354
+ a=0.7938
+ L_Z0=0
+ L_EL=0
+ L_F0=0E6
+ PkZ=2507.05086
.ends XGL1313-822_freq

*======================================================================
* SPICE Model generated by Coilcraft
* Coilcraft Part Number : XGL1313-822
* Inductance = 8.2uH
*======================================================================
* Model Parameters:
*   Valid Frequency Range = 0.1MHz-50MHz
*   Ambient Temperature = 25 degC
*   Inductor Saturation Model
*   Use model for Time Domain simulations
*======================================================================
.subckt XGL1313-822_sat port1 port2 PARAMS: Cpar=23pF Ind=8.2uH
X1 port1 port2 Model1C PARAMS:
+ R1=4
+ R2=0.0044
+ C= {Cpar}
+ K1=0.00012
+ K2=0.76
+ K3= {Ind}
+ K4=0.000001
+ K5=0.000001
+ L=8.1731E-06
+ Is=48.4354
+ a=0.7938
+ L_Z0=0
+ L_EL=0
+ L_F0=0E6
+ PkZ=2507.05086
.ends XGL1313-822_sat

*======================================================================
* SPICE Model generated by Coilcraft
* Coilcraft Part Number : XGL1313-103
* Inductance = 10uH
*======================================================================
* Model Parameters:
*   Valid Frequency Range = 0.1MHz-50MHz
*   Ambient Temperature = 25 degC
*   Inductor Frequency Model
*   Use model for Frequency Domain simulations
*======================================================================
.subckt XGL1313-103_freq port1 port2 PARAMS: Cpar=24pF Ind=10uH
X1 port1 port2 Model1A PARAMS:
+ R1=5
+ R2=0.0055
+ C= {Cpar}
+ K1=0.00008
+ K2=1.01
+ K3= {Ind}
+ K4=0.000001
+ K5=0.000001
+ L=1.0237E-05
+ Is=44.2156
+ a=0.7932
+ L_Z0=0
+ L_EL=0
+ L_F0=0E6
+ PkZ=3110.25957
.ends XGL1313-103_freq

*======================================================================
* SPICE Model generated by Coilcraft
* Coilcraft Part Number : XGL1313-103
* Inductance = 10uH
*======================================================================
* Model Parameters:
*   Valid Frequency Range = 0.1MHz-50MHz
*   Ambient Temperature = 25 degC
*   Inductor Saturation Model
*   Use model for Time Domain simulations
*======================================================================
.subckt XGL1313-103_sat port1 port2 PARAMS: Cpar=24pF Ind=10uH
X1 port1 port2 Model1C PARAMS:
+ R1=5
+ R2=0.0055
+ C= {Cpar}
+ K1=0.00008
+ K2=1.01
+ K3= {Ind}
+ K4=0.000001
+ K5=0.000001
+ L=1.0237E-05
+ Is=44.2156
+ a=0.7932
+ L_Z0=0
+ L_EL=0
+ L_F0=0E6
+ PkZ=3110.25957
.ends XGL1313-103_sat

*======================================================================
* SPICE Model generated by Coilcraft
* Coilcraft Part Number : XGL1313-153
* Inductance = 15uH
*======================================================================
* Model Parameters:
*   Valid Frequency Range = 0.1MHz-50MHz
*   Ambient Temperature = 25 degC
*   Inductor Frequency Model
*   Use model for Frequency Domain simulations
*======================================================================
.subckt XGL1313-153_freq port1 port2 PARAMS: Cpar=27pF Ind=15uH
X1 port1 port2 Model1A PARAMS:
+ R1=6
+ R2=0.008
+ C= {Cpar}
+ K1=0.000001
+ K2=1.45
+ K3= {Ind}
+ K4=0.000001
+ K5=0.000001
+ L=1.4941E-05
+ Is=34.7127
+ a=0.7805
+ L_Z0=0
+ L_EL=0
+ L_F0=0E6
+ PkZ=3905.62949
.ends XGL1313-153_freq

*======================================================================
* SPICE Model generated by Coilcraft
* Coilcraft Part Number : XGL1313-153
* Inductance = 15uH
*======================================================================
* Model Parameters:
*   Valid Frequency Range = 0.1MHz-50MHz
*   Ambient Temperature = 25 degC
*   Inductor Saturation Model
*   Use model for Time Domain simulations
*======================================================================
.subckt XGL1313-153_sat port1 port2 PARAMS: Cpar=27pF Ind=15uH
X1 port1 port2 Model1C PARAMS:
+ R1=6
+ R2=0.008
+ C= {Cpar}
+ K1=0.000001
+ K2=1.45
+ K3= {Ind}
+ K4=0.000001
+ K5=0.000001
+ L=1.4941E-05
+ Is=34.7127
+ a=0.7805
+ L_Z0=0
+ L_EL=0
+ L_F0=0E6
+ PkZ=3905.62949
.ends XGL1313-153_sat

*======================================================================
* SPICE Model generated by Coilcraft
* Coilcraft Part Number : XGL1313-223
* Inductance = 22uH
*======================================================================
* Model Parameters:
*   Valid Frequency Range = 0.1MHz-25MHz
*   Ambient Temperature = 25 degC
*   Inductor Frequency Model
*   Use model for Frequency Domain simulations
*======================================================================
.subckt XGL1313-223_freq port1 port2 PARAMS: Cpar=25pF Ind=22uH
X1 port1 port2 Model1A PARAMS:
+ R1=7
+ R2=0.0116
+ C= {Cpar}
+ K1=0.000001
+ K2=2.05
+ K3= {Ind}
+ K4=0.000001
+ K5=0.000001
+ L=2.2314E-05
+ Is=30.1467
+ a=0.7877
+ L_Z0=0
+ L_EL=0
+ L_F0=0E6
+ PkZ=5122.72126
.ends XGL1313-223_freq

*======================================================================
* SPICE Model generated by Coilcraft
* Coilcraft Part Number : XGL1313-223
* Inductance = 22uH
*======================================================================
* Model Parameters:
*   Valid Frequency Range = 0.1MHz-25MHz
*   Ambient Temperature = 25 degC
*   Inductor Saturation Model
*   Use model for Time Domain simulations
*======================================================================
.subckt XGL1313-223_sat port1 port2 PARAMS: Cpar=25pF Ind=22uH
X1 port1 port2 Model1C PARAMS:
+ R1=7
+ R2=0.0116
+ C= {Cpar}
+ K1=0.000001
+ K2=2.05
+ K3= {Ind}
+ K4=0.000001
+ K5=0.000001
+ L=2.2314E-05
+ Is=30.1467
+ a=0.7877
+ L_Z0=0
+ L_EL=0
+ L_F0=0E6
+ PkZ=5122.72126
.ends XGL1313-223_sat

*======================================================================
* SPICE Model generated by Coilcraft
* Coilcraft Part Number : XGL1313-333
* Inductance = 33uH
*======================================================================
* Model Parameters:
*   Valid Frequency Range = 0.1MHz-25MHz
*   Ambient Temperature = 25 degC
*   Inductor Frequency Model
*   Use model for Frequency Domain simulations
*======================================================================
.subckt XGL1313-333_freq port1 port2 PARAMS: Cpar=25pF Ind=33uH
X1 port1 port2 Model1A PARAMS:
+ R1=8
+ R2=0.0183
+ C= {Cpar}
+ K1=0.000001
+ K2=3.08
+ K3= {Ind}
+ K4=0.000001
+ K5=0.000001
+ L=3.4466E-05
+ Is=22.148
+ a=0.8077
+ L_Z0=0
+ L_EL=0
+ L_F0=0E6
+ PkZ=6944.93612
.ends XGL1313-333_freq

*======================================================================
* SPICE Model generated by Coilcraft
* Coilcraft Part Number : XGL1313-333
* Inductance = 33uH
*======================================================================
* Model Parameters:
*   Valid Frequency Range = 0.1MHz-25MHz
*   Ambient Temperature = 25 degC
*   Inductor Saturation Model
*   Use model for Time Domain simulations
*======================================================================
.subckt XGL1313-333_sat port1 port2 PARAMS: Cpar=25pF Ind=33uH
X1 port1 port2 Model1C PARAMS:
+ R1=8
+ R2=0.0183
+ C= {Cpar}
+ K1=0.000001
+ K2=3.08
+ K3= {Ind}
+ K4=0.000001
+ K5=0.000001
+ L=3.4466E-05
+ Is=22.148
+ a=0.8077
+ L_Z0=0
+ L_EL=0
+ L_F0=0E6
+ PkZ=6944.93612
.ends XGL1313-333_sat

*======================================================================
* SPICE Model generated by Coilcraft
* Coilcraft Part Number : XGL1313-473
* Inductance = 47uH
*======================================================================
* Model Parameters:
*   Valid Frequency Range = 0.1MHz-25MHz
*   Ambient Temperature = 25 degC
*   Inductor Frequency Model
*   Use model for Frequency Domain simulations
*======================================================================
.subckt XGL1313-473_freq port1 port2 PARAMS: Cpar=23pF Ind=47uH
X1 port1 port2 Model1A PARAMS:
+ R1=8
+ R2=0.0265
+ C= {Cpar}
+ K1=0.000001
+ K2=3.82
+ K3= {Ind}
+ K4=0.000001
+ K5=0.000001
+ L=4.78E-05
+ Is=18.4767
+ a=0.808
+ L_Z0=0
+ L_EL=0
+ L_F0=0E6
+ PkZ=8136.83405
.ends XGL1313-473_freq

*======================================================================
* SPICE Model generated by Coilcraft
* Coilcraft Part Number : XGL1313-473
* Inductance = 47uH
*======================================================================
* Model Parameters:
*   Valid Frequency Range = 0.1MHz-25MHz
*   Ambient Temperature = 25 degC
*   Inductor Saturation Model
*   Use model for Time Domain simulations
*======================================================================
.subckt XGL1313-473_sat port1 port2 PARAMS: Cpar=23pF Ind=47uH
X1 port1 port2 Model1C PARAMS:
+ R1=8
+ R2=0.0265
+ C= {Cpar}
+ K1=0.000001
+ K2=3.82
+ K3= {Ind}
+ K4=0.000001
+ K5=0.000001
+ L=4.78E-05
+ Is=18.4767
+ a=0.808
+ L_Z0=0
+ L_EL=0
+ L_F0=0E6
+ PkZ=8136.83405
.ends XGL1313-473_sat

*======================================================================
* SPICE Model generated by Coilcraft
* Coilcraft Saturation Inductor Model
*======================================================================
* Model Parameters:
*   Valid Frequency Range Varies by Inductor
*   Ambient Temperature = 25 degC
*   Current Saturable Inductor Model
*======================================================================
.subckt Model1C Lin Lout PARAMS:
+ R1=1
+ R2=1
+ C=1
+ L=1
+ Is=1
+ a=1
+ PkZ=94.2 * {L} *1e6
R2 Lin N001 {R2}
R3 N001 Lout {PkZ}
C1 N001 N002 {C}
R1 N002 Lout {R1}
L1 N001 Lout flux={L*Is}*pwrs(tanh(pwrs((x/{Is}),{a})),{1/a})
.ends Model1C





*======================================================================
* SPICE Model generated by Coilcraft
* Coilcraft Power Inductor Model
*======================================================================
* Model Parameters:
*   Valid Frequency Range Varies by Inductor
*   Ambient Temperature = 25 degC
*   DC Bias Current = 0 A
*   Frequency Dependent Inductor Model
*======================================================================
.subckt Model1A Lin Lout PARAMS:
+ R1=1
+ R2=1
+ C=1
+ K1=1
+ K2=1
+ K3=1
+ K4=1
+ K5=1
R2 N001 Lin {R2}
R1 Lout N002 {R1}
C1 N002 N001 {C}
G_Rvar2 N001 Lout LAPLACE { V(N001, Lout) } {1/K2/(-S*S/4/PI^2)^0.25}
G_Rvar1 N001 N003 LAPLACE { V(N001, N003) } {1/K1/(-S*S/4/PI^2)^0.25}
G_Lvar N003 Lout  LAPLACE { V(N003, Lout) } {1/(S*1e-6*({K3*1e6}-({K4}*LOG({K5}*(sqrt(-S*S)/(2*pi))))))}
*This large resistance to ground has been added to prevent a floating node error
R3 N003 0 100Meg
.ends Model1A

*======================================================================
* SPICE Model generated by Coilcraft
* Coilcraft Impedance Inductor Model
*======================================================================
* Model Parameters:
*   Valid Frequency Range Varies by Inductor
*   Ambient Temperature = 25 degC
*   Time Domain Inductor Impedance Model
*======================================================================
.subckt Model1D Lin Lout PARAMS:
+ R1=1
+ R2=1
+ C=1
+ K3=1
+ PkZ=1
R2 Lin N001 {R2}
R3 N001 Lout {PkZ}
C1 N001 N002 {C}
R1 N002 Lout {R1}
L1 N001 Lout {K3}
.ends Model1D









.subckt Coilcraft_Inductor Lin Lout
R1 Lout Lin 100Meg
.ends Coilcraft_Inductor
