*======================================================================
* SPICE Model generated by Coilcraft
* Coilcraft Part Number : XGL1010-271
* Inductance = 270nH
*======================================================================
* Model Parameters:
*   Valid Frequency Range = 0.1MHz-200MHz
*   Ambient Temperature = 25 degC
*   Inductor Frequency Model
*   Use model for Frequency Domain simulations
*======================================================================
.subckt XGL1010-271_freq port1 port2 PARAMS: Cpar=11pF Ind=0.27uH
X1 port1 port2 Model1A PARAMS:
+ R1=16
+ R2=0.00047
+ C= {Cpar}
+ K1=0.00003
+ K2=0.03
+ K3= {Ind}
+ K4=0.000001
+ K5=0.000001
+ L=2.777E-07
+ Is=278.7771
+ a=0.6127
+ L_Z0=0
+ L_EL=0
+ L_F0=0E6
+ PkZ=242.364808
.ends XGL1010-271_freq

*======================================================================
* SPICE Model generated by Coilcraft
* Coilcraft Part Number : XGL1010-271
* Inductance = 270nH
*======================================================================
* Model Parameters:
*   Valid Frequency Range = 0.1MHz-200MHz
*   Ambient Temperature = 25 degC
*   Inductor Saturation Model
*   Use model for Time Domain simulations
*======================================================================
.subckt XGL1010-271_sat port1 port2 PARAMS: Cpar=11pF Ind=0.27uH
X1 port1 port2 Model1C PARAMS:
+ R1=16
+ R2=0.00047
+ C= {Cpar}
+ K1=0.00003
+ K2=0.03
+ K3= {Ind}
+ K4=0.000001
+ K5=0.000001
+ L=2.777E-07
+ Is=278.7771
+ a=0.6127
+ L_Z0=0
+ L_EL=0
+ L_F0=0E6
+ PkZ=242.364808
.ends XGL1010-271_sat

*======================================================================
* SPICE Model generated by Coilcraft
* Coilcraft Part Number : XGL1010-521
* Inductance = 520nH
*======================================================================
* Model Parameters:
*   Valid Frequency Range = 0.1MHz-200MHz
*   Ambient Temperature = 25 degC
*   Inductor Frequency Model
*   Use model for Frequency Domain simulations
*======================================================================
.subckt XGL1010-521_freq port1 port2 PARAMS: Cpar=14.5pF Ind=0.52uH
X1 port1 port2 Model1A PARAMS:
+ R1=9
+ R2=0.00068
+ C= {Cpar}
+ K1=0.00013
+ K2=0.06
+ K3= {Ind}
+ K4=0.000001
+ K5=0.000001
+ L=5.446E-07
+ Is=152.0361
+ a=0.7458
+ L_Z0=0
+ L_EL=0
+ L_F0=0E6
+ PkZ=405.318568
.ends XGL1010-521_freq

*======================================================================
* SPICE Model generated by Coilcraft
* Coilcraft Part Number : XGL1010-521
* Inductance = 520nH
*======================================================================
* Model Parameters:
*   Valid Frequency Range = 0.1MHz-200MHz
*   Ambient Temperature = 25 degC
*   Inductor Saturation Model
*   Use model for Time Domain simulations
*======================================================================
.subckt XGL1010-521_sat port1 port2 PARAMS: Cpar=14.5pF Ind=0.52uH
X1 port1 port2 Model1C PARAMS:
+ R1=9
+ R2=0.00068
+ C= {Cpar}
+ K1=0.00013
+ K2=0.06
+ K3= {Ind}
+ K4=0.000001
+ K5=0.000001
+ L=5.446E-07
+ Is=152.0361
+ a=0.7458
+ L_Z0=0
+ L_EL=0
+ L_F0=0E6
+ PkZ=405.318568
.ends XGL1010-521_sat

*======================================================================
* SPICE Model generated by Coilcraft
* Coilcraft Part Number : XGL1010-801
* Inductance = 800nH
*======================================================================
* Model Parameters:
*   Valid Frequency Range = 0.1MHz-150MHz
*   Ambient Temperature = 25 degC
*   Inductor Frequency Model
*   Use model for Frequency Domain simulations
*======================================================================
.subckt XGL1010-801_freq port1 port2 PARAMS: Cpar=15.8pF Ind=0.8uH
X1 port1 port2 Model1A PARAMS:
+ R1=9
+ R2=0.00088
+ C= {Cpar}
+ K1=0.00003
+ K2=0.09
+ K3= {Ind}
+ K4=0.000001
+ K5=0.000001
+ L=8.264E-07
+ Is=125.083
+ a=0.7652
+ L_Z0=0
+ L_EL=0
+ L_F0=0E6
+ PkZ=542.854809
.ends XGL1010-801_freq

*======================================================================
* SPICE Model generated by Coilcraft
* Coilcraft Part Number : XGL1010-801
* Inductance = 800nH
*======================================================================
* Model Parameters:
*   Valid Frequency Range = 0.1MHz-150MHz
*   Ambient Temperature = 25 degC
*   Inductor Saturation Model
*   Use model for Time Domain simulations
*======================================================================
.subckt XGL1010-801_sat port1 port2 PARAMS: Cpar=15.8pF Ind=0.8uH
X1 port1 port2 Model1C PARAMS:
+ R1=9
+ R2=0.00088
+ C= {Cpar}
+ K1=0.00003
+ K2=0.09
+ K3= {Ind}
+ K4=0.000001
+ K5=0.000001
+ L=8.264E-07
+ Is=125.083
+ a=0.7652
+ L_Z0=0
+ L_EL=0
+ L_F0=0E6
+ PkZ=542.854809
.ends XGL1010-801_sat

*======================================================================
* SPICE Model generated by Coilcraft
* Coilcraft Part Number : XGL1010-122
* Inductance = 1.2uH
*======================================================================
* Model Parameters:
*   Valid Frequency Range = 0.1MHz-150MHz
*   Ambient Temperature = 25 degC
*   Inductor Frequency Model
*   Use model for Frequency Domain simulations
*======================================================================
.subckt XGL1010-122_freq port1 port2 PARAMS: Cpar=15pF Ind=1.2uH
X1 port1 port2 Model1A PARAMS:
+ R1=9
+ R2=0.0012
+ C= {Cpar}
+ K1=0.000001
+ K2=0.12
+ K3= {Ind}
+ K4=0.000001
+ K5=0.000001
+ L=1.1554E-06
+ Is=104.9648
+ a=0.7731
+ L_Z0=0
+ L_EL=0
+ L_F0=0E6
+ PkZ=678.862487
.ends XGL1010-122_freq

*======================================================================
* SPICE Model generated by Coilcraft
* Coilcraft Part Number : XGL1010-122
* Inductance = 1.2uH
*======================================================================
* Model Parameters:
*   Valid Frequency Range = 0.1MHz-150MHz
*   Ambient Temperature = 25 degC
*   Inductor Saturation Model
*   Use model for Time Domain simulations
*======================================================================
.subckt XGL1010-122_sat port1 port2 PARAMS: Cpar=15pF Ind=1.2uH
X1 port1 port2 Model1C PARAMS:
+ R1=9
+ R2=0.0012
+ C= {Cpar}
+ K1=0.000001
+ K2=0.12
+ K3= {Ind}
+ K4=0.000001
+ K5=0.000001
+ L=1.1554E-06
+ Is=104.9648
+ a=0.7731
+ L_Z0=0
+ L_EL=0
+ L_F0=0E6
+ PkZ=678.862487
.ends XGL1010-122_sat

*======================================================================
* SPICE Model generated by Coilcraft
* Coilcraft Part Number : XGL1010-152
* Inductance = 1.5uH
*======================================================================
* Model Parameters:
*   Valid Frequency Range = 0.1MHz-100MHz
*   Ambient Temperature = 25 degC
*   Inductor Frequency Model
*   Use model for Frequency Domain simulations
*======================================================================
.subckt XGL1010-152_freq port1 port2 PARAMS: Cpar=17pF Ind=1.5uH
X1 port1 port2 Model1A PARAMS:
+ R1=6
+ R2=0.0015
+ C= {Cpar}
+ K1=0.000001
+ K2=0.16
+ K3= {Ind}
+ K4=0.000001
+ K5=0.000001
+ L=1.4978E-06
+ Is=96.6389
+ a=0.7542
+ L_Z0=0
+ L_EL=0
+ L_F0=0E6
+ PkZ=846.513818
.ends XGL1010-152_freq

*======================================================================
* SPICE Model generated by Coilcraft
* Coilcraft Part Number : XGL1010-152
* Inductance = 1.5uH
*======================================================================
* Model Parameters:
*   Valid Frequency Range = 0.1MHz-100MHz
*   Ambient Temperature = 25 degC
*   Inductor Saturation Model
*   Use model for Time Domain simulations
*======================================================================
.subckt XGL1010-152_sat port1 port2 PARAMS: Cpar=17pF Ind=1.5uH
X1 port1 port2 Model1C PARAMS:
+ R1=6
+ R2=0.0015
+ C= {Cpar}
+ K1=0.000001
+ K2=0.16
+ K3= {Ind}
+ K4=0.000001
+ K5=0.000001
+ L=1.4978E-06
+ Is=96.6389
+ a=0.7542
+ L_Z0=0
+ L_EL=0
+ L_F0=0E6
+ PkZ=846.513818
.ends XGL1010-152_sat

*======================================================================
* SPICE Model generated by Coilcraft
* Coilcraft Part Number : XGL1010-222
* Inductance = 2.2uH
*======================================================================
* Model Parameters:
*   Valid Frequency Range = 0.1MHz-100MHz
*   Ambient Temperature = 25 degC
*   Inductor Frequency Model
*   Use model for Frequency Domain simulations
*======================================================================
.subckt XGL1010-222_freq port1 port2 PARAMS: Cpar=17pF Ind=2.2uH
X1 port1 port2 Model1A PARAMS:
+ R1=8
+ R2=0.0023
+ C= {Cpar}
+ K1=0.000001
+ K2=0.24
+ K3= {Ind}
+ K4=0.000001
+ K5=0.000001
+ L=2.3311E-06
+ Is=72.5829
+ a=0.7514
+ L_Z0=0
+ L_EL=0
+ L_F0=0E6
+ PkZ=1138.18714
.ends XGL1010-222_freq

*======================================================================
* SPICE Model generated by Coilcraft
* Coilcraft Part Number : XGL1010-222
* Inductance = 2.2uH
*======================================================================
* Model Parameters:
*   Valid Frequency Range = 0.1MHz-100MHz
*   Ambient Temperature = 25 degC
*   Inductor Saturation Model
*   Use model for Time Domain simulations
*======================================================================
.subckt XGL1010-222_sat port1 port2 PARAMS: Cpar=17pF Ind=2.2uH
X1 port1 port2 Model1C PARAMS:
+ R1=8
+ R2=0.0023
+ C= {Cpar}
+ K1=0.000001
+ K2=0.24
+ K3= {Ind}
+ K4=0.000001
+ K5=0.000001
+ L=2.3311E-06
+ Is=72.5829
+ a=0.7514
+ L_Z0=0
+ L_EL=0
+ L_F0=0E6
+ PkZ=1138.18714
.ends XGL1010-222_sat

*======================================================================
* SPICE Model generated by Coilcraft
* Coilcraft Part Number : XGL1010-332
* Inductance = 3.3uH
*======================================================================
* Model Parameters:
*   Valid Frequency Range = 0.1MHz-100MHz
*   Ambient Temperature = 25 degC
*   Inductor Frequency Model
*   Use model for Frequency Domain simulations
*======================================================================
.subckt XGL1010-332_freq port1 port2 PARAMS: Cpar=23pF Ind=3.3uH
X1 port1 port2 Model1A PARAMS:
+ R1=12
+ R2=0.0032
+ C= {Cpar}
+ K1=0.00004
+ K2=0.32
+ K3= {Ind}
+ K4=0.000001
+ K5=0.000001
+ L=3.3444E-06
+ Is=62.0772
+ a=0.7668
+ L_Z0=0
+ L_EL=0
+ L_F0=0E6
+ PkZ=1225.66155
.ends XGL1010-332_freq

*======================================================================
* SPICE Model generated by Coilcraft
* Coilcraft Part Number : XGL1010-332
* Inductance = 3.3uH
*======================================================================
* Model Parameters:
*   Valid Frequency Range = 0.1MHz-100MHz
*   Ambient Temperature = 25 degC
*   Inductor Saturation Model
*   Use model for Time Domain simulations
*======================================================================
.subckt XGL1010-332_sat port1 port2 PARAMS: Cpar=23pF Ind=3.3uH
X1 port1 port2 Model1C PARAMS:
+ R1=12
+ R2=0.0032
+ C= {Cpar}
+ K1=0.00004
+ K2=0.32
+ K3= {Ind}
+ K4=0.000001
+ K5=0.000001
+ L=3.3444E-06
+ Is=62.0772
+ a=0.7668
+ L_Z0=0
+ L_EL=0
+ L_F0=0E6
+ PkZ=1225.66155
.ends XGL1010-332_sat

*======================================================================
* SPICE Model generated by Coilcraft
* Coilcraft Part Number : XGL1010-472
* Inductance = 4.7uH
*======================================================================
* Model Parameters:
*   Valid Frequency Range = 0.1MHz-50MHz
*   Ambient Temperature = 25 degC
*   Inductor Frequency Model
*   Use model for Frequency Domain simulations
*======================================================================
.subckt XGL1010-472_freq port1 port2 PARAMS: Cpar=16.6pF Ind=4.7uH
X1 port1 port2 Model1A PARAMS:
+ R1=6
+ R2=0.004
+ C= {Cpar}
+ K1=0.00004
+ K2=0.52
+ K3= {Ind}
+ K4=0.000001
+ K5=0.000001
+ L=4.3092E-06
+ Is=63.5542
+ a=0.6982
+ L_Z0=0
+ L_EL=0
+ L_F0=0E6
+ PkZ=2106.02051
.ends XGL1010-472_freq

*======================================================================
* SPICE Model generated by Coilcraft
* Coilcraft Part Number : XGL1010-472
* Inductance = 4.7uH
*======================================================================
* Model Parameters:
*   Valid Frequency Range = 0.1MHz-50MHz
*   Ambient Temperature = 25 degC
*   Inductor Saturation Model
*   Use model for Time Domain simulations
*======================================================================
.subckt XGL1010-472_sat port1 port2 PARAMS: Cpar=16.6pF Ind=4.7uH
X1 port1 port2 Model1C PARAMS:
+ R1=6
+ R2=0.004
+ C= {Cpar}
+ K1=0.00004
+ K2=0.52
+ K3= {Ind}
+ K4=0.000001
+ K5=0.000001
+ L=4.3092E-06
+ Is=63.5542
+ a=0.6982
+ L_Z0=0
+ L_EL=0
+ L_F0=0E6
+ PkZ=2106.02051
.ends XGL1010-472_sat

*======================================================================
* SPICE Model generated by Coilcraft
* Coilcraft Part Number : XGL1010-562
* Inductance = 5.6uH
*======================================================================
* Model Parameters:
*   Valid Frequency Range = 0.1MHz-50MHz
*   Ambient Temperature = 25 degC
*   Inductor Frequency Model
*   Use model for Frequency Domain simulations
*======================================================================
.subckt XGL1010-562_freq port1 port2 PARAMS: Cpar=18.3pF Ind=5.6uH
X1 port1 port2 Model1A PARAMS:
+ R1=6
+ R2=0.0052
+ C= {Cpar}
+ K1=0.00004
+ K2=0.58
+ K3= {Ind}
+ K4=0.000001
+ K5=0.000001
+ L=5.6706E-06
+ Is=47.1074
+ a=0.7677
+ L_Z0=0
+ L_EL=0
+ L_F0=0E6
+ PkZ=2198.02306
.ends XGL1010-562_freq

*======================================================================
* SPICE Model generated by Coilcraft
* Coilcraft Part Number : XGL1010-562
* Inductance = 5.6uH
*======================================================================
* Model Parameters:
*   Valid Frequency Range = 0.1MHz-50MHz
*   Ambient Temperature = 25 degC
*   Inductor Saturation Model
*   Use model for Time Domain simulations
*======================================================================
.subckt XGL1010-562_sat port1 port2 PARAMS: Cpar=18.3pF Ind=5.6uH
X1 port1 port2 Model1C PARAMS:
+ R1=6
+ R2=0.0052
+ C= {Cpar}
+ K1=0.00004
+ K2=0.58
+ K3= {Ind}
+ K4=0.000001
+ K5=0.000001
+ L=5.6706E-06
+ Is=47.1074
+ a=0.7677
+ L_Z0=0
+ L_EL=0
+ L_F0=0E6
+ PkZ=2198.02306
.ends XGL1010-562_sat

*======================================================================
* SPICE Model generated by Coilcraft
* Coilcraft Part Number : XGL1010-682
* Inductance = 6.8uH
*======================================================================
* Model Parameters:
*   Valid Frequency Range = 0.1MHz-50MHz
*   Ambient Temperature = 25 degC
*   Inductor Frequency Model
*   Use model for Frequency Domain simulations
*======================================================================
.subckt XGL1010-682_freq port1 port2 PARAMS: Cpar=18.8pF Ind=6.8uH
X1 port1 port2 Model1A PARAMS:
+ R1=7
+ R2=0.0062
+ C= {Cpar}
+ K1=0.0003
+ K2=0.73
+ K3= {Ind}
+ K4=0.000001
+ K5=0.000001
+ L=7.0667E-06
+ Is=43.3005
+ a=0.7778
+ L_Z0=0
+ L_EL=0
+ L_F0=0E6
+ PkZ=2580.11473
.ends XGL1010-682_freq

*======================================================================
* SPICE Model generated by Coilcraft
* Coilcraft Part Number : XGL1010-682
* Inductance = 6.8uH
*======================================================================
* Model Parameters:
*   Valid Frequency Range = 0.1MHz-50MHz
*   Ambient Temperature = 25 degC
*   Inductor Saturation Model
*   Use model for Time Domain simulations
*======================================================================
.subckt XGL1010-682_sat port1 port2 PARAMS: Cpar=18.8pF Ind=6.8uH
X1 port1 port2 Model1C PARAMS:
+ R1=7
+ R2=0.0062
+ C= {Cpar}
+ K1=0.0003
+ K2=0.73
+ K3= {Ind}
+ K4=0.000001
+ K5=0.000001
+ L=7.0667E-06
+ Is=43.3005
+ a=0.7778
+ L_Z0=0
+ L_EL=0
+ L_F0=0E6
+ PkZ=2580.11473
.ends XGL1010-682_sat

*======================================================================
* SPICE Model generated by Coilcraft
* Coilcraft Part Number : XGL1010-822
* Inductance = 8.2uH
*======================================================================
* Model Parameters:
*   Valid Frequency Range = 0.1MHz-50MHz
*   Ambient Temperature = 25 degC
*   Inductor Frequency Model
*   Use model for Frequency Domain simulations
*======================================================================
.subckt XGL1010-822_freq port1 port2 PARAMS: Cpar=19.3pF Ind=8.2uH
X1 port1 port2 Model1A PARAMS:
+ R1=6
+ R2=0.008
+ C= {Cpar}
+ K1=0.000001
+ K2=0.9
+ K3= {Ind}
+ K4=0.000001
+ K5=0.000001
+ L=8.2953E-06
+ Is=37.8114
+ a=0.7784
+ L_Z0=0
+ L_EL=0
+ L_F0=0E6
+ PkZ=3062.66228
.ends XGL1010-822_freq

*======================================================================
* SPICE Model generated by Coilcraft
* Coilcraft Part Number : XGL1010-822
* Inductance = 8.2uH
*======================================================================
* Model Parameters:
*   Valid Frequency Range = 0.1MHz-50MHz
*   Ambient Temperature = 25 degC
*   Inductor Saturation Model
*   Use model for Time Domain simulations
*======================================================================
.subckt XGL1010-822_sat port1 port2 PARAMS: Cpar=19.3pF Ind=8.2uH
X1 port1 port2 Model1C PARAMS:
+ R1=6
+ R2=0.008
+ C= {Cpar}
+ K1=0.000001
+ K2=0.9
+ K3= {Ind}
+ K4=0.000001
+ K5=0.000001
+ L=8.2953E-06
+ Is=37.8114
+ a=0.7784
+ L_Z0=0
+ L_EL=0
+ L_F0=0E6
+ PkZ=3062.66228
.ends XGL1010-822_sat

*======================================================================
* SPICE Model generated by Coilcraft
* Coilcraft Part Number : XGL1010-103
* Inductance = 10uH
*======================================================================
* Model Parameters:
*   Valid Frequency Range = 0.1MHz-50MHz
*   Ambient Temperature = 25 degC
*   Inductor Frequency Model
*   Use model for Frequency Domain simulations
*======================================================================
.subckt XGL1010-103_freq port1 port2 PARAMS: Cpar=17.9pF Ind=10uH
X1 port1 port2 Model1A PARAMS:
+ R1=6
+ R2=0.0087
+ C= {Cpar}
+ K1=0.000001
+ K2=1.01
+ K3= {Ind}
+ K4=0.000001
+ K5=0.000001
+ L=9.6053E-06
+ Is=37.8872
+ a=0.7684
+ L_Z0=0
+ L_EL=0
+ L_F0=0E6
+ PkZ=3357.83718
.ends XGL1010-103_freq

*======================================================================
* SPICE Model generated by Coilcraft
* Coilcraft Part Number : XGL1010-103
* Inductance = 10uH
*======================================================================
* Model Parameters:
*   Valid Frequency Range = 0.1MHz-50MHz
*   Ambient Temperature = 25 degC
*   Inductor Saturation Model
*   Use model for Time Domain simulations
*======================================================================
.subckt XGL1010-103_sat port1 port2 PARAMS: Cpar=17.9pF Ind=10uH
X1 port1 port2 Model1C PARAMS:
+ R1=6
+ R2=0.0087
+ C= {Cpar}
+ K1=0.000001
+ K2=1.01
+ K3= {Ind}
+ K4=0.000001
+ K5=0.000001
+ L=9.6053E-06
+ Is=37.8872
+ a=0.7684
+ L_Z0=0
+ L_EL=0
+ L_F0=0E6
+ PkZ=3357.83718
.ends XGL1010-103_sat

*======================================================================
* SPICE Model generated by Coilcraft
* Coilcraft Part Number : XGL1010-153
* Inductance = 15uH
*======================================================================
* Model Parameters:
*   Valid Frequency Range = 0.1MHz-50MHz
*   Ambient Temperature = 25 degC
*   Inductor Frequency Model
*   Use model for Frequency Domain simulations
*======================================================================
.subckt XGL1010-153_freq port1 port2 PARAMS: Cpar=17.9pF Ind=15uH
X1 port1 port2 Model1A PARAMS:
+ R1=8
+ R2=0.0136
+ C= {Cpar}
+ K1=0.000001
+ K2=1.51
+ K3= {Ind}
+ K4=0.000001
+ K5=0.000001
+ L=1.4882E-05
+ Is=30.8621
+ a=0.7678
+ L_Z0=0
+ L_EL=0
+ L_F0=0E6
+ PkZ=4503.60858
.ends XGL1010-153_freq

*======================================================================
* SPICE Model generated by Coilcraft
* Coilcraft Part Number : XGL1010-153
* Inductance = 15uH
*======================================================================
* Model Parameters:
*   Valid Frequency Range = 0.1MHz-50MHz
*   Ambient Temperature = 25 degC
*   Inductor Saturation Model
*   Use model for Time Domain simulations
*======================================================================
.subckt XGL1010-153_sat port1 port2 PARAMS: Cpar=17.9pF Ind=15uH
X1 port1 port2 Model1C PARAMS:
+ R1=8
+ R2=0.0136
+ C= {Cpar}
+ K1=0.000001
+ K2=1.51
+ K3= {Ind}
+ K4=0.000001
+ K5=0.000001
+ L=1.4882E-05
+ Is=30.8621
+ a=0.7678
+ L_Z0=0
+ L_EL=0
+ L_F0=0E6
+ PkZ=4503.60858
.ends XGL1010-153_sat

*======================================================================
* SPICE Model generated by Coilcraft
* Coilcraft Part Number : XGL1010-223
* Inductance = 22uH
*======================================================================
* Model Parameters:
*   Valid Frequency Range = 0.1MHz-25MHz
*   Ambient Temperature = 25 degC
*   Inductor Frequency Model
*   Use model for Frequency Domain simulations
*======================================================================
.subckt XGL1010-223_freq port1 port2 PARAMS: Cpar=18pF Ind=22uH
X1 port1 port2 Model1A PARAMS:
+ R1=9
+ R2=0.0196
+ C= {Cpar}
+ K1=0.000001
+ K2=2.3
+ K3= {Ind}
+ K4=0.000001
+ K5=0.000001
+ L=2.2566E-05
+ Is=25.5693
+ a=0.7725
+ L_Z0=0
+ L_EL=0
+ L_F0=0E6
+ PkZ=6207.14686
.ends XGL1010-223_freq

*======================================================================
* SPICE Model generated by Coilcraft
* Coilcraft Part Number : XGL1010-223
* Inductance = 22uH
*======================================================================
* Model Parameters:
*   Valid Frequency Range = 0.1MHz-25MHz
*   Ambient Temperature = 25 degC
*   Inductor Saturation Model
*   Use model for Time Domain simulations
*======================================================================
.subckt XGL1010-223_sat port1 port2 PARAMS: Cpar=18pF Ind=22uH
X1 port1 port2 Model1C PARAMS:
+ R1=9
+ R2=0.0196
+ C= {Cpar}
+ K1=0.000001
+ K2=2.3
+ K3= {Ind}
+ K4=0.000001
+ K5=0.000001
+ L=2.2566E-05
+ Is=25.5693
+ a=0.7725
+ L_Z0=0
+ L_EL=0
+ L_F0=0E6
+ PkZ=6207.14686
.ends XGL1010-223_sat

*======================================================================
* SPICE Model generated by Coilcraft
* Coilcraft Part Number : XGL1010-333
* Inductance = 33uH
*======================================================================
* Model Parameters:
*   Valid Frequency Range = 0.1MHz-25MHz
*   Ambient Temperature = 25 degC
*   Inductor Frequency Model
*   Use model for Frequency Domain simulations
*======================================================================
.subckt XGL1010-333_freq port1 port2 PARAMS: Cpar=18.6pF Ind=33uH
X1 port1 port2 Model1A PARAMS:
+ R1=11
+ R2=0.0299
+ C= {Cpar}
+ K1=0.000001
+ K2=3.5
+ K3= {Ind}
+ K4=0.000001
+ K5=0.000001
+ L=3.2909E-05
+ Is=20.6977
+ a=0.7702
+ L_Z0=0
+ L_EL=0
+ L_F0=0E6
+ PkZ=8408.46547
.ends XGL1010-333_freq

*======================================================================
* SPICE Model generated by Coilcraft
* Coilcraft Part Number : XGL1010-333
* Inductance = 33uH
*======================================================================
* Model Parameters:
*   Valid Frequency Range = 0.1MHz-25MHz
*   Ambient Temperature = 25 degC
*   Inductor Saturation Model
*   Use model for Time Domain simulations
*======================================================================
.subckt XGL1010-333_sat port1 port2 PARAMS: Cpar=18.6pF Ind=33uH
X1 port1 port2 Model1C PARAMS:
+ R1=11
+ R2=0.0299
+ C= {Cpar}
+ K1=0.000001
+ K2=3.5
+ K3= {Ind}
+ K4=0.000001
+ K5=0.000001
+ L=3.2909E-05
+ Is=20.6977
+ a=0.7702
+ L_Z0=0
+ L_EL=0
+ L_F0=0E6
+ PkZ=8408.46547
.ends XGL1010-333_sat

*======================================================================
* SPICE Model generated by Coilcraft
* Coilcraft Part Number : XGL1010-473
* Inductance = 47uH
*======================================================================
* Model Parameters:
*   Valid Frequency Range = 0.1MHz-25MHz
*   Ambient Temperature = 25 degC
*   Inductor Frequency Model
*   Use model for Frequency Domain simulations
*======================================================================
.subckt XGL1010-473_freq port1 port2 PARAMS: Cpar=22.9pF Ind=47uH
X1 port1 port2 Model1A PARAMS:
+ R1=17
+ R2=0.0409
+ C= {Cpar}
+ K1=0.000001
+ K2=4.63
+ K3= {Ind}
+ K4=0.000001
+ K5=0.000001
+ L=4.5739E-05
+ Is=15.8929
+ a=0.7565
+ L_Z0=0
+ L_EL=0
+ L_F0=0E6
+ PkZ=9403.57311
.ends XGL1010-473_freq

*======================================================================
* SPICE Model generated by Coilcraft
* Coilcraft Part Number : XGL1010-473
* Inductance = 47uH
*======================================================================
* Model Parameters:
*   Valid Frequency Range = 0.1MHz-25MHz
*   Ambient Temperature = 25 degC
*   Inductor Saturation Model
*   Use model for Time Domain simulations
*======================================================================
.subckt XGL1010-473_sat port1 port2 PARAMS: Cpar=22.9pF Ind=47uH
X1 port1 port2 Model1C PARAMS:
+ R1=17
+ R2=0.0409
+ C= {Cpar}
+ K1=0.000001
+ K2=4.63
+ K3= {Ind}
+ K4=0.000001
+ K5=0.000001
+ L=4.5739E-05
+ Is=15.8929
+ a=0.7565
+ L_Z0=0
+ L_EL=0
+ L_F0=0E6
+ PkZ=9403.57311
.ends XGL1010-473_sat

*======================================================================
* SPICE Model generated by Coilcraft
* Coilcraft Part Number : XGL1010-563
* Inductance = 56uH
*======================================================================
* Model Parameters:
*   Valid Frequency Range = 0.1MHz-25MHz
*   Ambient Temperature = 25 degC
*   Inductor Frequency Model
*   Use model for Frequency Domain simulations
*======================================================================
.subckt XGL1010-563_freq port1 port2 PARAMS: Cpar=22.8pF Ind=56uH
X1 port1 port2 Model1A PARAMS:
+ R1=15
+ R2=0.0499
+ C= {Cpar}
+ K1=0.000001
+ K2=4.53
+ K3= {Ind}
+ K4=0.000001
+ K5=0.000001
+ L=5.2702E-05
+ Is=14.8844
+ a=0.7736
+ L_Z0=0
+ L_EL=0
+ L_F0=0E6
+ PkZ=9033.04651
.ends XGL1010-563_freq

*======================================================================
* SPICE Model generated by Coilcraft
* Coilcraft Part Number : XGL1010-563
* Inductance = 56uH
*======================================================================
* Model Parameters:
*   Valid Frequency Range = 0.1MHz-25MHz
*   Ambient Temperature = 25 degC
*   Inductor Saturation Model
*   Use model for Time Domain simulations
*======================================================================
.subckt XGL1010-563_sat port1 port2 PARAMS: Cpar=22.8pF Ind=56uH
X1 port1 port2 Model1C PARAMS:
+ R1=15
+ R2=0.0499
+ C= {Cpar}
+ K1=0.000001
+ K2=4.53
+ K3= {Ind}
+ K4=0.000001
+ K5=0.000001
+ L=5.2702E-05
+ Is=14.8844
+ a=0.7736
+ L_Z0=0
+ L_EL=0
+ L_F0=0E6
+ PkZ=9033.04651
.ends XGL1010-563_sat

*======================================================================
* SPICE Model generated by Coilcraft
* Coilcraft Saturation Inductor Model
*======================================================================
* Model Parameters:
*   Valid Frequency Range Varies by Inductor
*   Ambient Temperature = 25 degC
*   Current Saturable Inductor Model
*======================================================================
.subckt Model1C Lin Lout PARAMS:
+ R1=1
+ R2=1
+ C=1
+ L=1
+ Is=1
+ a=1
+ PkZ=94.2 * {L} *1e6
R2 Lin N001 {R2}
R3 N001 Lout {PkZ}
C1 N001 N002 {C}
R1 N002 Lout {R1}
L1 N001 Lout flux={L*Is}*pwrs(tanh(pwrs((x/{Is}),{a})),{1/a})
.ends Model1C





*======================================================================
* SPICE Model generated by Coilcraft
* Coilcraft Power Inductor Model
*======================================================================
* Model Parameters:
*   Valid Frequency Range Varies by Inductor
*   Ambient Temperature = 25 degC
*   DC Bias Current = 0 A
*   Frequency Dependent Inductor Model
*======================================================================
.subckt Model1A Lin Lout PARAMS:
+ R1=1
+ R2=1
+ C=1
+ K1=1
+ K2=1
+ K3=1
+ K4=1
+ K5=1
R2 N001 Lin {R2}
R1 Lout N002 {R1}
C1 N002 N001 {C}
G_Rvar2 N001 Lout LAPLACE { V(N001, Lout) } {1/K2/(-S*S/4/PI^2)^0.25}
G_Rvar1 N001 N003 LAPLACE { V(N001, N003) } {1/K1/(-S*S/4/PI^2)^0.25}
G_Lvar N003 Lout  LAPLACE { V(N003, Lout) } {1/(S*1e-6*({K3*1e6}-({K4}*LOG({K5}*(sqrt(-S*S)/(2*pi))))))}
*This large resistance to ground has been added to prevent a floating node error
R3 N003 0 100Meg
.ends Model1A


.subckt Coilcraft_Inductor Lin Lout
R1 Lout Lin 100Meg
.ends Coilcraft_Inductor
