*======================================================================
* SPICE Model generated by Coilcraft
* Coilcraft Part Number : XGL1060-102
* Inductance = 1uH
*======================================================================
* Model Parameters:
*   Valid Frequency Range = 0.1MHz-150MHz
*   Ambient Temperature = 25 degC
*   Inductor Frequency Model
*   Use model for Frequency Domain simulations
*======================================================================
.subckt XGL1060-102_freq port1 port2 PARAMS: Cpar=18.4pF Ind=1uH
X1 port1 port2 Model1A PARAMS:
+ R1=8
+ R2=0.0017
+ C= {Cpar}
+ K1=0.000001
+ K2=0.12
+ K3= {Ind}
+ K4=0.000001
+ K5=0.000001
+ L=9.42E-07
+ Is=103.3178
+ a=0.6958
+ L_Z0=0
+ L_EL=0
+ L_F0=0E6
+ PkZ=659.966715
.ends XGL1060-102_freq

*======================================================================
* SPICE Model generated by Coilcraft
* Coilcraft Part Number : XGL1060-102
* Inductance = 1uH
*======================================================================
* Model Parameters:
*   Valid Frequency Range = 0.1MHz-150MHz
*   Ambient Temperature = 25 degC
*   Inductor Saturation Model
*   Use model for Time Domain simulations
*======================================================================
.subckt XGL1060-102_sat port1 port2 PARAMS: Cpar=18.4pF Ind=1uH
X1 port1 port2 Model1C PARAMS:
+ R1=8
+ R2=0.0017
+ C= {Cpar}
+ K1=0.000001
+ K2=0.12
+ K3= {Ind}
+ K4=0.000001
+ K5=0.000001
+ L=9.42E-07
+ Is=103.3178
+ a=0.6958
+ L_Z0=0
+ L_EL=0
+ L_F0=0E6
+ PkZ=659.966715
.ends XGL1060-102_sat

*======================================================================
* SPICE Model generated by Coilcraft
* Coilcraft Part Number : XGL1060-152
* Inductance = 1.5uH
*======================================================================
* Model Parameters:
*   Valid Frequency Range = 0.1MHz-150MHz
*   Ambient Temperature = 25 degC
*   Inductor Frequency Model
*   Use model for Frequency Domain simulations
*======================================================================
.subckt XGL1060-152_freq port1 port2 PARAMS: Cpar=17.7pF Ind=1.5uH
X1 port1 port2 Model1A PARAMS:
+ R1=6
+ R2=0.0025
+ C= {Cpar}
+ K1=0.000001
+ K2=0.18
+ K3= {Ind}
+ K4=0.000001
+ K5=0.000001
+ L=1.4347E-06
+ Is=87.5564
+ a=0.696
+ L_Z0=0
+ L_EL=0
+ L_F0=0E6
+ PkZ=934.186497
.ends XGL1060-152_freq

*======================================================================
* SPICE Model generated by Coilcraft
* Coilcraft Part Number : XGL1060-152
* Inductance = 1.5uH
*======================================================================
* Model Parameters:
*   Valid Frequency Range = 0.1MHz-150MHz
*   Ambient Temperature = 25 degC
*   Inductor Saturation Model
*   Use model for Time Domain simulations
*======================================================================
.subckt XGL1060-152_sat port1 port2 PARAMS: Cpar=17.7pF Ind=1.5uH
X1 port1 port2 Model1C PARAMS:
+ R1=6
+ R2=0.0025
+ C= {Cpar}
+ K1=0.000001
+ K2=0.18
+ K3= {Ind}
+ K4=0.000001
+ K5=0.000001
+ L=1.4347E-06
+ Is=87.5564
+ a=0.696
+ L_Z0=0
+ L_EL=0
+ L_F0=0E6
+ PkZ=934.186497
.ends XGL1060-152_sat

*======================================================================
* SPICE Model generated by Coilcraft
* Coilcraft Part Number : XGL1060-182
* Inductance = 1.8uH
*======================================================================
* Model Parameters:
*   Valid Frequency Range = 0.1MHz-100MHz
*   Ambient Temperature = 25 degC
*   Inductor Frequency Model
*   Use model for Frequency Domain simulations
*======================================================================
.subckt XGL1060-182_freq port1 port2 PARAMS: Cpar=19pF Ind=1.8uH
X1 port1 port2 Model1A PARAMS:
+ R1=5
+ R2=0.0028
+ C= {Cpar}
+ K1=0.000001
+ K2=0.23
+ K3= {Ind}
+ K4=0.000001
+ K5=0.000001
+ L=1.8019E-06
+ Is=77.7704
+ a=0.6706
+ L_Z0=0
+ L_EL=0
+ L_F0=0E6
+ PkZ=1128.35503
.ends XGL1060-182_freq

*======================================================================
* SPICE Model generated by Coilcraft
* Coilcraft Part Number : XGL1060-182
* Inductance = 1.8uH
*======================================================================
* Model Parameters:
*   Valid Frequency Range = 0.1MHz-100MHz
*   Ambient Temperature = 25 degC
*   Inductor Saturation Model
*   Use model for Time Domain simulations
*======================================================================
.subckt XGL1060-182_sat port1 port2 PARAMS: Cpar=19pF Ind=1.8uH
X1 port1 port2 Model1C PARAMS:
+ R1=5
+ R2=0.0028
+ C= {Cpar}
+ K1=0.000001
+ K2=0.23
+ K3= {Ind}
+ K4=0.000001
+ K5=0.000001
+ L=1.8019E-06
+ Is=77.7704
+ a=0.6706
+ L_Z0=0
+ L_EL=0
+ L_F0=0E6
+ PkZ=1128.35503
.ends XGL1060-182_sat

*======================================================================
* SPICE Model generated by Coilcraft
* Coilcraft Part Number : XGL1060-222
* Inductance = 2.2uH
*======================================================================
* Model Parameters:
*   Valid Frequency Range = 0.1MHz-100MHz
*   Ambient Temperature = 25 degC
*   Inductor Frequency Model
*   Use model for Frequency Domain simulations
*======================================================================
.subckt XGL1060-222_freq port1 port2 PARAMS: Cpar=19.1pF Ind=2.2uH
X1 port1 port2 Model1A PARAMS:
+ R1=7
+ R2=0.0028
+ C= {Cpar}
+ K1=0.000001
+ K2=0.26
+ K3= {Ind}
+ K4=0.000001
+ K5=0.000001
+ L=2.2014E-06
+ Is=65.282
+ a=0.7075
+ L_Z0=0
+ L_EL=0
+ L_F0=0E6
+ PkZ=1194.74152
.ends XGL1060-222_freq

*======================================================================
* SPICE Model generated by Coilcraft
* Coilcraft Part Number : XGL1060-222
* Inductance = 2.2uH
*======================================================================
* Model Parameters:
*   Valid Frequency Range = 0.1MHz-100MHz
*   Ambient Temperature = 25 degC
*   Inductor Saturation Model
*   Use model for Time Domain simulations
*======================================================================
.subckt XGL1060-222_sat port1 port2 PARAMS: Cpar=19.1pF Ind=2.2uH
X1 port1 port2 Model1C PARAMS:
+ R1=7
+ R2=0.0028
+ C= {Cpar}
+ K1=0.000001
+ K2=0.26
+ K3= {Ind}
+ K4=0.000001
+ K5=0.000001
+ L=2.2014E-06
+ Is=65.282
+ a=0.7075
+ L_Z0=0
+ L_EL=0
+ L_F0=0E6
+ PkZ=1194.74152
.ends XGL1060-222_sat

*======================================================================
* SPICE Model generated by Coilcraft
* Coilcraft Part Number : XGL1060-272
* Inductance = 2.7uH
*======================================================================
* Model Parameters:
*   Valid Frequency Range = 0.1MHz-100MHz
*   Ambient Temperature = 25 degC
*   Inductor Frequency Model
*   Use model for Frequency Domain simulations
*======================================================================
.subckt XGL1060-272_freq port1 port2 PARAMS: Cpar=21pF Ind=2.7uH
X1 port1 port2 Model1A PARAMS:
+ R1=6
+ R2=0.0043
+ C= {Cpar}
+ K1=0.000001
+ K2=0.36
+ K3= {Ind}
+ K4=0.000001
+ K5=0.000001
+ L=2.645E-06
+ Is=66.2427
+ a=0.6691
+ L_Z0=0
+ L_EL=0
+ L_F0=0E6
+ PkZ=1536.35476
.ends XGL1060-272_freq

*======================================================================
* SPICE Model generated by Coilcraft
* Coilcraft Part Number : XGL1060-272
* Inductance = 2.7uH
*======================================================================
* Model Parameters:
*   Valid Frequency Range = 0.1MHz-100MHz
*   Ambient Temperature = 25 degC
*   Inductor Saturation Model
*   Use model for Time Domain simulations
*======================================================================
.subckt XGL1060-272_sat port1 port2 PARAMS: Cpar=21pF Ind=2.7uH
X1 port1 port2 Model1C PARAMS:
+ R1=6
+ R2=0.0043
+ C= {Cpar}
+ K1=0.000001
+ K2=0.36
+ K3= {Ind}
+ K4=0.000001
+ K5=0.000001
+ L=2.645E-06
+ Is=66.2427
+ a=0.6691
+ L_Z0=0
+ L_EL=0
+ L_F0=0E6
+ PkZ=1536.35476
.ends XGL1060-272_sat

*======================================================================
* SPICE Model generated by Coilcraft
* Coilcraft Part Number : XGL1060-332
* Inductance = 3.3uH
*======================================================================
* Model Parameters:
*   Valid Frequency Range = 0.1MHz-100MHz
*   Ambient Temperature = 25 degC
*   Inductor Frequency Model
*   Use model for Frequency Domain simulations
*======================================================================
.subckt XGL1060-332_freq port1 port2 PARAMS: Cpar=18.4pF Ind=3.3uH
X1 port1 port2 Model1A PARAMS:
+ R1=5
+ R2=0.005
+ C= {Cpar}
+ K1=0.000001
+ K2=0.42
+ K3= {Ind}
+ K4=0.000001
+ K5=0.000001
+ L=3.3143E-06
+ Is=56.3296
+ a=0.6967
+ L_Z0=0
+ L_EL=0
+ L_F0=0E6
+ PkZ=1802.67127
.ends XGL1060-332_freq

*======================================================================
* SPICE Model generated by Coilcraft
* Coilcraft Part Number : XGL1060-332
* Inductance = 3.3uH
*======================================================================
* Model Parameters:
*   Valid Frequency Range = 0.1MHz-100MHz
*   Ambient Temperature = 25 degC
*   Inductor Saturation Model
*   Use model for Time Domain simulations
*======================================================================
.subckt XGL1060-332_sat port1 port2 PARAMS: Cpar=18.4pF Ind=3.3uH
X1 port1 port2 Model1C PARAMS:
+ R1=5
+ R2=0.005
+ C= {Cpar}
+ K1=0.000001
+ K2=0.42
+ K3= {Ind}
+ K4=0.000001
+ K5=0.000001
+ L=3.3143E-06
+ Is=56.3296
+ a=0.6967
+ L_Z0=0
+ L_EL=0
+ L_F0=0E6
+ PkZ=1802.67127
.ends XGL1060-332_sat

*======================================================================
* SPICE Model generated by Coilcraft
* Coilcraft Part Number : XGL1060-472
* Inductance = 4.7uH
*======================================================================
* Model Parameters:
*   Valid Frequency Range = 0.1MHz-100MHz
*   Ambient Temperature = 25 degC
*   Inductor Frequency Model
*   Use model for Frequency Domain simulations
*======================================================================
.subckt XGL1060-472_freq port1 port2 PARAMS: Cpar=18.6pF Ind=4.7uH
X1 port1 port2 Model1A PARAMS:
+ R1=6
+ R2=0.0075
+ C= {Cpar}
+ K1=0.000001
+ K2=0.62
+ K3= {Ind}
+ K4=0.000001
+ K5=0.000001
+ L=4.6211E-06
+ Is=52.0103
+ a=0.665
+ L_Z0=0
+ L_EL=0
+ L_F0=0E6
+ PkZ=2411.45069
.ends XGL1060-472_freq

*======================================================================
* SPICE Model generated by Coilcraft
* Coilcraft Part Number : XGL1060-472
* Inductance = 4.7uH
*======================================================================
* Model Parameters:
*   Valid Frequency Range = 0.1MHz-100MHz
*   Ambient Temperature = 25 degC
*   Inductor Saturation Model
*   Use model for Time Domain simulations
*======================================================================
.subckt XGL1060-472_sat port1 port2 PARAMS: Cpar=18.6pF Ind=4.7uH
X1 port1 port2 Model1C PARAMS:
+ R1=6
+ R2=0.0075
+ C= {Cpar}
+ K1=0.000001
+ K2=0.62
+ K3= {Ind}
+ K4=0.000001
+ K5=0.000001
+ L=4.6211E-06
+ Is=52.0103
+ a=0.665
+ L_Z0=0
+ L_EL=0
+ L_F0=0E6
+ PkZ=2411.45069
.ends XGL1060-472_sat

*======================================================================
* SPICE Model generated by Coilcraft
* Coilcraft Part Number : XGL1060-562
* Inductance = 5.6uH
*======================================================================
* Model Parameters:
*   Valid Frequency Range = 0.1MHz-100MHz
*   Ambient Temperature = 25 degC
*   Inductor Frequency Model
*   Use model for Frequency Domain simulations
*======================================================================
.subckt XGL1060-562_freq port1 port2 PARAMS: Cpar=17.9pF Ind=5.6uH
X1 port1 port2 Model1A PARAMS:
+ R1=6
+ R2=0.0089
+ C= {Cpar}
+ K1=0.000001
+ K2=0.7
+ K3= {Ind}
+ K4=0.000001
+ K5=0.000001
+ L=5.5084E-06
+ Is=47.4191
+ a=0.6451
+ L_Z0=0
+ L_EL=0
+ L_F0=0E6
+ PkZ=2649.06082
.ends XGL1060-562_freq

*======================================================================
* SPICE Model generated by Coilcraft
* Coilcraft Part Number : XGL1060-562
* Inductance = 5.6uH
*======================================================================
* Model Parameters:
*   Valid Frequency Range = 0.1MHz-100MHz
*   Ambient Temperature = 25 degC
*   Inductor Saturation Model
*   Use model for Time Domain simulations
*======================================================================
.subckt XGL1060-562_sat port1 port2 PARAMS: Cpar=17.9pF Ind=5.6uH
X1 port1 port2 Model1C PARAMS:
+ R1=6
+ R2=0.0089
+ C= {Cpar}
+ K1=0.000001
+ K2=0.7
+ K3= {Ind}
+ K4=0.000001
+ K5=0.000001
+ L=5.5084E-06
+ Is=47.4191
+ a=0.6451
+ L_Z0=0
+ L_EL=0
+ L_F0=0E6
+ PkZ=2649.06082
.ends XGL1060-562_sat

*======================================================================
* SPICE Model generated by Coilcraft
* Coilcraft Part Number : XGL1060-682
* Inductance = 6.8uH
*======================================================================
* Model Parameters:
*   Valid Frequency Range = 0.1MHz-100MHz
*   Ambient Temperature = 25 degC
*   Inductor Frequency Model
*   Use model for Frequency Domain simulations
*======================================================================
.subckt XGL1060-682_freq port1 port2 PARAMS: Cpar=19pF Ind=6.8uH
X1 port1 port2 Model1A PARAMS:
+ R1=5
+ R2=0.011
+ C= {Cpar}
+ K1=0.000001
+ K2=0.94
+ K3= {Ind}
+ K4=0.000001
+ K5=0.000001
+ L=7.0484E-06
+ Is=42.4372
+ a=0.671
+ L_Z0=0
+ L_EL=0
+ L_F0=0E6
+ PkZ=3352.55863
.ends XGL1060-682_freq

*======================================================================
* SPICE Model generated by Coilcraft
* Coilcraft Part Number : XGL1060-682
* Inductance = 6.8uH
*======================================================================
* Model Parameters:
*   Valid Frequency Range = 0.1MHz-100MHz
*   Ambient Temperature = 25 degC
*   Inductor Saturation Model
*   Use model for Time Domain simulations
*======================================================================
.subckt XGL1060-682_sat port1 port2 PARAMS: Cpar=19pF Ind=6.8uH
X1 port1 port2 Model1C PARAMS:
+ R1=5
+ R2=0.011
+ C= {Cpar}
+ K1=0.000001
+ K2=0.94
+ K3= {Ind}
+ K4=0.000001
+ K5=0.000001
+ L=7.0484E-06
+ Is=42.4372
+ a=0.671
+ L_Z0=0
+ L_EL=0
+ L_F0=0E6
+ PkZ=3352.55863
.ends XGL1060-682_sat

*======================================================================
* SPICE Model generated by Coilcraft
* Coilcraft Part Number : XGL1060-822
* Inductance = 8.2uH
*======================================================================
* Model Parameters:
*   Valid Frequency Range = 0.1MHz-100MHz
*   Ambient Temperature = 25 degC
*   Inductor Frequency Model
*   Use model for Frequency Domain simulations
*======================================================================
.subckt XGL1060-822_freq port1 port2 PARAMS: Cpar=20pF Ind=8.2uH
X1 port1 port2 Model1A PARAMS:
+ R1=5
+ R2=0.0133
+ C= {Cpar}
+ K1=0.000001
+ K2=1
+ K3= {Ind}
+ K4=0.000001
+ K5=0.000001
+ L=8.0057E-06
+ Is=37.0116
+ a=0.703
+ L_Z0=0
+ L_EL=0
+ L_F0=0E6
+ PkZ=3379.93547
.ends XGL1060-822_freq

*======================================================================
* SPICE Model generated by Coilcraft
* Coilcraft Part Number : XGL1060-822
* Inductance = 8.2uH
*======================================================================
* Model Parameters:
*   Valid Frequency Range = 0.1MHz-100MHz
*   Ambient Temperature = 25 degC
*   Inductor Saturation Model
*   Use model for Time Domain simulations
*======================================================================
.subckt XGL1060-822_sat port1 port2 PARAMS: Cpar=20pF Ind=8.2uH
X1 port1 port2 Model1C PARAMS:
+ R1=5
+ R2=0.0133
+ C= {Cpar}
+ K1=0.000001
+ K2=1
+ K3= {Ind}
+ K4=0.000001
+ K5=0.000001
+ L=8.0057E-06
+ Is=37.0116
+ a=0.703
+ L_Z0=0
+ L_EL=0
+ L_F0=0E6
+ PkZ=3379.93547
.ends XGL1060-822_sat

*======================================================================
* SPICE Model generated by Coilcraft
* Coilcraft Part Number : XGL1060-103
* Inductance = 10uH
*======================================================================
* Model Parameters:
*   Valid Frequency Range = 0.1MHz-100MHz
*   Ambient Temperature = 25 degC
*   Inductor Frequency Model
*   Use model for Frequency Domain simulations
*======================================================================
.subckt XGL1060-103_freq port1 port2 PARAMS: Cpar=18.4pF Ind=10uH
X1 port1 port2 Model1A PARAMS:
+ R1=5
+ R2=0.0161
+ C= {Cpar}
+ K1=0.000001
+ K2=1.29
+ K3= {Ind}
+ K4=0.000001
+ K5=0.000001
+ L=9.9072E-06
+ Is=33.1808
+ a=0.7152
+ L_Z0=0
+ L_EL=0
+ L_F0=0E6
+ PkZ=4246.00558
.ends XGL1060-103_freq

*======================================================================
* SPICE Model generated by Coilcraft
* Coilcraft Part Number : XGL1060-103
* Inductance = 10uH
*======================================================================
* Model Parameters:
*   Valid Frequency Range = 0.1MHz-100MHz
*   Ambient Temperature = 25 degC
*   Inductor Saturation Model
*   Use model for Time Domain simulations
*======================================================================
.subckt XGL1060-103_sat port1 port2 PARAMS: Cpar=18.4pF Ind=10uH
X1 port1 port2 Model1C PARAMS:
+ R1=5
+ R2=0.0161
+ C= {Cpar}
+ K1=0.000001
+ K2=1.29
+ K3= {Ind}
+ K4=0.000001
+ K5=0.000001
+ L=9.9072E-06
+ Is=33.1808
+ a=0.7152
+ L_Z0=0
+ L_EL=0
+ L_F0=0E6
+ PkZ=4246.00558
.ends XGL1060-103_sat

*======================================================================
* SPICE Model generated by Coilcraft
* Coilcraft Saturation Inductor Model
*======================================================================
* Model Parameters:
*   Valid Frequency Range Varies by Inductor
*   Ambient Temperature = 25 degC
*   Current Saturable Inductor Model
*======================================================================
.subckt Model1C Lin Lout PARAMS:
+ R1=1
+ R2=1
+ C=1
+ L=1
+ Is=1
+ a=1
+ PkZ=94.2 * {L} *1e6
R2 Lin N001 {R2}
R3 N001 Lout {PkZ}
C1 N001 N002 {C}
R1 N002 Lout {R1}
L1 N001 Lout flux={L*Is}*pwrs(tanh(pwrs((x/{Is}),{a})),{1/a})
.ends Model1C





*======================================================================
* SPICE Model generated by Coilcraft
* Coilcraft Power Inductor Model
*======================================================================
* Model Parameters:
*   Valid Frequency Range Varies by Inductor
*   Ambient Temperature = 25 degC
*   DC Bias Current = 0 A
*   Frequency Dependent Inductor Model
*======================================================================
.subckt Model1A Lin Lout PARAMS:
+ R1=1
+ R2=1
+ C=1
+ K1=1
+ K2=1
+ K3=1
+ K4=1
+ K5=1
R2 N001 Lin {R2}
R1 Lout N002 {R1}
C1 N002 N001 {C}
G_Rvar2 N001 Lout LAPLACE { V(N001, Lout) } {1/K2/(-S*S/4/PI^2)^0.25}
G_Rvar1 N001 N003 LAPLACE { V(N001, N003) } {1/K1/(-S*S/4/PI^2)^0.25}
G_Lvar N003 Lout  LAPLACE { V(N003, Lout) } {1/(S*1e-6*({K3*1e6}-({K4}*LOG({K5}*(sqrt(-S*S)/(2*pi))))))}
*This large resistance to ground has been added to prevent a floating node error
R3 N003 0 100Meg
.ends Model1A


.subckt Coilcraft_Inductor Lin Lout
R1 Lout Lin 100Meg
.ends Coilcraft_Inductor
