*======================================================================
* SPICE Model generated by Coilcraft
* Coilcraft Part Number : XGL3530-101
* Inductance = 100nH
*======================================================================
* Model Parameters:
*   Valid Frequency Range = 0.1MHz-750MHz
*   Ambient Temperature = 25 degC
*   Inductor Frequency Model
*   Use model for Frequency Domain simulations
*======================================================================
.subckt XGL3530-101_freq port1 port2 PARAMS: Cpar=2pF Ind=0.1uH
X1 port1 port2 Model1A PARAMS:
+ R1=20
+ R2=0.023
+ C= {Cpar}
+ K1=0.000001
+ K2=0.015
+ K3= {Ind}
+ K4=0.000001
+ K5=0.000001
+ L=9.6E-08
+ Is=31.329
+ a=0.8193
+ L_Z0=0
+ L_EL=0
+ L_F0=0E6
+ PkZ=254.39503
.ends XGL3530-101_freq

*======================================================================
* SPICE Model generated by Coilcraft
* Coilcraft Part Number : XGL3530-101
* Inductance = 100nH
*======================================================================
* Model Parameters:
*   Valid Frequency Range = 0.1MHz-750MHz
*   Ambient Temperature = 25 degC
*   Inductor Saturation Model
*   Use model for Time Domain simulations
*======================================================================
.subckt XGL3530-101_sat port1 port2 PARAMS: Cpar=2pF Ind=0.1uH
X1 port1 port2 Model1C PARAMS:
+ R1=20
+ R2=0.023
+ C= {Cpar}
+ K1=0.000001
+ K2=0.015
+ K3= {Ind}
+ K4=0.000001
+ K5=0.000001
+ L=9.6E-08
+ Is=31.329
+ a=0.8193
+ L_Z0=0
+ L_EL=0
+ L_F0=0E6
+ PkZ=254.39503
.ends XGL3530-101_sat

*======================================================================
* SPICE Model generated by Coilcraft
* Coilcraft Part Number : XGL3530-201
* Inductance = 200nH
*======================================================================
* Model Parameters:
*   Valid Frequency Range = 0.1MHz-600MHz
*   Ambient Temperature = 25 degC
*   Inductor Frequency Model
*   Use model for Frequency Domain simulations
*======================================================================
.subckt XGL3530-201_freq port1 port2 PARAMS: Cpar=2.9pF Ind=0.2uH
X1 port1 port2 Model1A PARAMS:
+ R1=15
+ R2=0.00325
+ C= {Cpar}
+ K1=0.000001
+ K2=0.03
+ K3= {Ind}
+ K4=0.003
+ K5=0.0000038
+ L=1.949E-07
+ Is=22.6966
+ a=0.8063
+ L_Z0=0
+ L_EL=0
+ L_F0=0E6
+ PkZ=402.106919
.ends XGL3530-201_freq

*======================================================================
* SPICE Model generated by Coilcraft
* Coilcraft Part Number : XGL3530-201
* Inductance = 200nH
*======================================================================
* Model Parameters:
*   Valid Frequency Range = 0.1MHz-600MHz
*   Ambient Temperature = 25 degC
*   Inductor Saturation Model
*   Use model for Time Domain simulations
*======================================================================
.subckt XGL3530-201_sat port1 port2 PARAMS: Cpar=2.61pF Ind=0.2uH
X1 port1 port2 Model1C PARAMS:
+ R1=15
+ R2=0.00325
+ C= {Cpar}
+ K1=0.000001
+ K2=0.03
+ K3= {Ind}
+ K4=0.003
+ K5=0.0000038
+ L=1.949E-07
+ Is=22.6966
+ a=0.8063
+ L_Z0=0
+ L_EL=0
+ L_F0=0E6
+ PkZ=402.106919
.ends XGL3530-201_sat

*======================================================================
* SPICE Model generated by Coilcraft
* Coilcraft Part Number : XGL3530-331
* Inductance = 330nH
*======================================================================
* Model Parameters:
*   Valid Frequency Range = 0.1MHz-500MHz
*   Ambient Temperature = 25 degC
*   Inductor Frequency Model
*   Use model for Frequency Domain simulations
*======================================================================
.subckt XGL3530-331_freq port1 port2 PARAMS: Cpar=3.3pF Ind=0.33uH
X1 port1 port2 Model1A PARAMS:
+ R1=10
+ R2=0.0043
+ C= {Cpar}
+ K1=0.000001
+ K2=0.045
+ K3= {Ind}
+ K4=0.000001
+ K5=0.000001
+ L=3.107E-07
+ Is=16.7657
+ a=0.842
+ L_Z0=0
+ L_EL=0
+ L_F0=0E6
+ PkZ=526.472891
.ends XGL3530-331_freq

*======================================================================
* SPICE Model generated by Coilcraft
* Coilcraft Part Number : XGL3530-331
* Inductance = 330nH
*======================================================================
* Model Parameters:
*   Valid Frequency Range = 0.1MHz-500MHz
*   Ambient Temperature = 25 degC
*   Inductor Saturation Model
*   Use model for Time Domain simulations
*======================================================================
.subckt XGL3530-331_sat port1 port2 PARAMS: Cpar=3.3pF Ind=0.33uH
X1 port1 port2 Model1C PARAMS:
+ R1=10
+ R2=0.0043
+ C= {Cpar}
+ K1=0.000001
+ K2=0.045
+ K3= {Ind}
+ K4=0.000001
+ K5=0.000001
+ L=3.107E-07
+ Is=16.7657
+ a=0.842
+ L_Z0=0
+ L_EL=0
+ L_F0=0E6
+ PkZ=526.472891
.ends XGL3530-331_sat

*======================================================================
* SPICE Model generated by Coilcraft
* Coilcraft Part Number : XGL3530-451
* Inductance = 450nH
*======================================================================
* Model Parameters:
*   Valid Frequency Range = 0.1MHz-500MHz
*   Ambient Temperature = 25 degC
*   Inductor Frequency Model
*   Use model for Frequency Domain simulations
*======================================================================
.subckt XGL3530-451_freq port1 port2 PARAMS: Cpar=3.1pF Ind=0.45uH
X1 port1 port2 Model1A PARAMS:
+ R1=10
+ R2=0.00525
+ C= {Cpar}
+ K1=0.000001
+ K2=0.061
+ K3= {Ind}
+ K4=0.0048
+ K5=0.0000002
+ L=4.467E-07
+ Is=14.2677
+ a=0.8458
+ L_Z0=0
+ L_EL=0
+ L_F0=0E6
+ PkZ=679.775802
.ends XGL3530-451_freq

*======================================================================
* SPICE Model generated by Coilcraft
* Coilcraft Part Number : XGL3530-451
* Inductance = 450nH
*======================================================================
* Model Parameters:
*   Valid Frequency Range = 0.1MHz-500MHz
*   Ambient Temperature = 25 degC
*   Inductor Saturation Model
*   Use model for Time Domain simulations
*======================================================================
.subckt XGL3530-451_sat port1 port2 PARAMS: Cpar=2.991pF Ind=0.45uH
X1 port1 port2 Model1C PARAMS:
+ R1=10
+ R2=0.00525
+ C= {Cpar}
+ K1=0.000001
+ K2=0.061
+ K3= {Ind}
+ K4=0.0048
+ K5=0.0000002
+ L=4.467E-07
+ Is=14.2677
+ a=0.8458
+ L_Z0=0
+ L_EL=0
+ L_F0=0E6
+ PkZ=679.775802
.ends XGL3530-451_sat

*======================================================================
* SPICE Model generated by Coilcraft
* Coilcraft Part Number : XGL3530-601
* Inductance = 600nH
*======================================================================
* Model Parameters:
*   Valid Frequency Range = 0.1MHz-500MHz
*   Ambient Temperature = 25 degC
*   Inductor Frequency Model
*   Use model for Frequency Domain simulations
*======================================================================
.subckt XGL3530-601_freq port1 port2 PARAMS: Cpar=3.6pF Ind=0.6uH
X1 port1 port2 Model1A PARAMS:
+ R1=10
+ R2=0.0062
+ C= {Cpar}
+ K1=0.000001
+ K2=0.085
+ K3= {Ind}
+ K4=0.000001
+ K5=0.000001
+ L=6.068E-07
+ Is=13.3546
+ a=0.8022
+ L_Z0=0
+ L_EL=0
+ L_F0=0E6
+ PkZ=839.945828
.ends XGL3530-601_freq

*======================================================================
* SPICE Model generated by Coilcraft
* Coilcraft Part Number : XGL3530-601
* Inductance = 600nH
*======================================================================
* Model Parameters:
*   Valid Frequency Range = 0.1MHz-500MHz
*   Ambient Temperature = 25 degC
*   Inductor Saturation Model
*   Use model for Time Domain simulations
*======================================================================
.subckt XGL3530-601_sat port1 port2 PARAMS: Cpar=3.6pF Ind=0.6uH
X1 port1 port2 Model1C PARAMS:
+ R1=10
+ R2=0.0062
+ C= {Cpar}
+ K1=0.000001
+ K2=0.085
+ K3= {Ind}
+ K4=0.000001
+ K5=0.000001
+ L=6.068E-07
+ Is=13.3546
+ a=0.8022
+ L_Z0=0
+ L_EL=0
+ L_F0=0E6
+ PkZ=839.945828
.ends XGL3530-601_sat

*======================================================================
* SPICE Model generated by Coilcraft
* Coilcraft Part Number : XGL3530-701
* Inductance = 700nH
*======================================================================
* Model Parameters:
*   Valid Frequency Range = 0.1MHz-500MHz
*   Ambient Temperature = 25 degC
*   Inductor Frequency Model
*   Use model for Frequency Domain simulations
*======================================================================
.subckt XGL3530-701_freq port1 port2 PARAMS: Cpar=3pF Ind=0.7uH
X1 port1 port2 Model1A PARAMS:
+ R1=10
+ R2=0.00725
+ C= {Cpar}
+ K1=0.000001
+ K2=0.1
+ K3= {Ind}
+ K4=0.000001
+ K5=0.000001
+ L=0
+ Is=0
+ a=0
+ L_Z0=0
+ L_EL=0
+ L_F0=0E6
+ PkZ=1002.92119
.ends XGL3530-701_freq

*======================================================================
* SPICE Model generated by Coilcraft
* Coilcraft Part Number : XGL3530-701
* Inductance = 700nH
*======================================================================
* Model Parameters:
*   Valid Frequency Range = 0.1MHz-500MHz
*   Ambient Temperature = 25 degC
*   Inductor Impedance Model
*   Use model for Time Domain simulations
*======================================================================
.subckt XGL3530-701_imp port1 port2 PARAMS: Cpar=3pF Ind=0.7uH
X1 port1 port2 Model1D PARAMS:
+ R1=10
+ R2=0.00725
+ C= {Cpar}
+ K1=0.000001
+ K2=0.1
+ K3= {Ind}
+ K4=0.000001
+ K5=0.000001
+ L=0
+ Is=0
+ a=0
+ L_Z0=0
+ L_EL=0
+ L_F0=0E6
+ PkZ=1002.92119
.ends XGL3530-701_imp

*======================================================================
* SPICE Model generated by Coilcraft
* Coilcraft Part Number : XGL3530-821
* Inductance = 820nH
*======================================================================
* Model Parameters:
*   Valid Frequency Range = 0.1MHz-500MHz
*   Ambient Temperature = 25 degC
*   Inductor Frequency Model
*   Use model for Frequency Domain simulations
*======================================================================
.subckt XGL3530-821_freq port1 port2 PARAMS: Cpar=3.6pF Ind=0.82uH
X1 port1 port2 Model1A PARAMS:
+ R1=10
+ R2=0.0081
+ C= {Cpar}
+ K1=0.000001
+ K2=0.14
+ K3= {Ind}
+ K4=0.000001
+ K5=0.000001
+ L=7.902E-07
+ Is=12.1706
+ a=0.8457
+ L_Z0=0
+ L_EL=0
+ L_F0=0E6
+ PkZ=1272.153
.ends XGL3530-821_freq

*======================================================================
* SPICE Model generated by Coilcraft
* Coilcraft Part Number : XGL3530-821
* Inductance = 820nH
*======================================================================
* Model Parameters:
*   Valid Frequency Range = 0.1MHz-500MHz
*   Ambient Temperature = 25 degC
*   Inductor Saturation Model
*   Use model for Time Domain simulations
*======================================================================
.subckt XGL3530-821_sat port1 port2 PARAMS: Cpar=3.6pF Ind=0.82uH
X1 port1 port2 Model1C PARAMS:
+ R1=10
+ R2=0.0081
+ C= {Cpar}
+ K1=0.000001
+ K2=0.14
+ K3= {Ind}
+ K4=0.000001
+ K5=0.000001
+ L=7.902E-07
+ Is=12.1706
+ a=0.8457
+ L_Z0=0
+ L_EL=0
+ L_F0=0E6
+ PkZ=1272.153
.ends XGL3530-821_sat

*======================================================================
* SPICE Model generated by Coilcraft
* Coilcraft Part Number : XGL3530-901
* Inductance = 900nH
*======================================================================
* Model Parameters:
*   Valid Frequency Range = 0.1MHz-500MHz
*   Ambient Temperature = 25 degC
*   Inductor Frequency Model
*   Use model for Frequency Domain simulations
*======================================================================
.subckt XGL3530-901_freq port1 port2 PARAMS: Cpar=3.2pF Ind=0.9uH
X1 port1 port2 Model1A PARAMS:
+ R1=10
+ R2=0.009
+ C= {Cpar}
+ K1=0.000001
+ K2=0.12
+ K3= {Ind}
+ K4=0.000001
+ K5=0.000001
+ L=0
+ Is=0
+ a=0
+ L_Z0=0
+ L_EL=0
+ L_F0=0E6
+ PkZ=1115.97026
.ends XGL3530-901_freq

*======================================================================
* SPICE Model generated by Coilcraft
* Coilcraft Part Number : XGL3530-901
* Inductance = 900nH
*======================================================================
* Model Parameters:
*   Valid Frequency Range = 0.1MHz-500MHz
*   Ambient Temperature = 25 degC
*   Inductor Impedance Model
*   Use model for Time Domain simulations
*======================================================================
.subckt XGL3530-901_imp port1 port2 PARAMS: Cpar=3.2pF Ind=0.9uH
X1 port1 port2 Model1D PARAMS:
+ R1=10
+ R2=0.009
+ C= {Cpar}
+ K1=0.000001
+ K2=0.12
+ K3= {Ind}
+ K4=0.000001
+ K5=0.000001
+ L=0
+ Is=0
+ a=0
+ L_Z0=0
+ L_EL=0
+ L_F0=0E6
+ PkZ=1115.97026
.ends XGL3530-901_imp

*======================================================================
* SPICE Model generated by Coilcraft
* Coilcraft Part Number : XGL3530-102
* Inductance = 1uH
*======================================================================
* Model Parameters:
*   Valid Frequency Range = 0.1MHz-500MHz
*   Ambient Temperature = 25 degC
*   Inductor Frequency Model
*   Use model for Frequency Domain simulations
*======================================================================
.subckt XGL3530-102_freq port1 port2 PARAMS: Cpar=3.3pF Ind=1uH
X1 port1 port2 Model1A PARAMS:
+ R1=10
+ R2=0.0099
+ C= {Cpar}
+ K1=0.000001
+ K2=0.14
+ K3= {Ind}
+ K4=0.000001
+ K5=0.000001
+ L=9.451E-07
+ Is=11.4891
+ a=0.836
+ L_Z0=0
+ L_EL=0
+ L_F0=0E6
+ PkZ=1256.07794
.ends XGL3530-102_freq

*======================================================================
* SPICE Model generated by Coilcraft
* Coilcraft Part Number : XGL3530-102
* Inductance = 1uH
*======================================================================
* Model Parameters:
*   Valid Frequency Range = 0.1MHz-500MHz
*   Ambient Temperature = 25 degC
*   Inductor Saturation Model
*   Use model for Time Domain simulations
*======================================================================
.subckt XGL3530-102_sat port1 port2 PARAMS: Cpar=3.3pF Ind=1uH
X1 port1 port2 Model1C PARAMS:
+ R1=10
+ R2=0.0099
+ C= {Cpar}
+ K1=0.000001
+ K2=0.14
+ K3= {Ind}
+ K4=0.000001
+ K5=0.000001
+ L=9.451E-07
+ Is=11.4891
+ a=0.836
+ L_Z0=0
+ L_EL=0
+ L_F0=0E6
+ PkZ=1256.07794
.ends XGL3530-102_sat

*======================================================================
* SPICE Model generated by Coilcraft
* Coilcraft Part Number : XGL3530-122
* Inductance = 1.2uH
*======================================================================
* Model Parameters:
*   Valid Frequency Range = 0.1MHz-500MHz
*   Ambient Temperature = 25 degC
*   Inductor Frequency Model
*   Use model for Frequency Domain simulations
*======================================================================
.subckt XGL3530-122_freq port1 port2 PARAMS: Cpar=4pF Ind=1.2uH
X1 port1 port2 Model1A PARAMS:
+ R1=10
+ R2=0.0118
+ C= {Cpar}
+ K1=0.000001
+ K2=0.18
+ K3= {Ind}
+ K4=0.000001
+ K5=0.000001
+ L=1.1624E-06
+ Is=10.2412
+ a=0.8346
+ L_Z0=0
+ L_EL=0
+ L_F0=0E6
+ PkZ=1459.50248
.ends XGL3530-122_freq

*======================================================================
* SPICE Model generated by Coilcraft
* Coilcraft Part Number : XGL3530-122
* Inductance = 1.2uH
*======================================================================
* Model Parameters:
*   Valid Frequency Range = 0.1MHz-500MHz
*   Ambient Temperature = 25 degC
*   Inductor Saturation Model
*   Use model for Time Domain simulations
*======================================================================
.subckt XGL3530-122_sat port1 port2 PARAMS: Cpar=4pF Ind=1.2uH
X1 port1 port2 Model1C PARAMS:
+ R1=10
+ R2=0.0118
+ C= {Cpar}
+ K1=0.000001
+ K2=0.18
+ K3= {Ind}
+ K4=0.000001
+ K5=0.000001
+ L=1.1624E-06
+ Is=10.2412
+ a=0.8346
+ L_Z0=0
+ L_EL=0
+ L_F0=0E6
+ PkZ=1459.50248
.ends XGL3530-122_sat

*======================================================================
* SPICE Model generated by Coilcraft
* Coilcraft Part Number : XGL3530-152
* Inductance = 1.5uH
*======================================================================
* Model Parameters:
*   Valid Frequency Range = 0.1MHz-400MHz
*   Ambient Temperature = 25 degC
*   Inductor Frequency Model
*   Use model for Frequency Domain simulations
*======================================================================
.subckt XGL3530-152_freq port1 port2 PARAMS: Cpar=3.9pF Ind=1.5uH
X1 port1 port2 Model1A PARAMS:
+ R1=10
+ R2=0.0139
+ C= {Cpar}
+ K1=0.000001
+ K2=0.22
+ K3= {Ind}
+ K4=0.000001
+ K5=0.000001
+ L=1.3749E-06
+ Is=9.6676
+ a=0.8271
+ L_Z0=0
+ L_EL=0
+ L_F0=0E6
+ PkZ=1705.45057
.ends XGL3530-152_freq

*======================================================================
* SPICE Model generated by Coilcraft
* Coilcraft Part Number : XGL3530-152
* Inductance = 1.5uH
*======================================================================
* Model Parameters:
*   Valid Frequency Range = 0.1MHz-400MHz
*   Ambient Temperature = 25 degC
*   Inductor Saturation Model
*   Use model for Time Domain simulations
*======================================================================
.subckt XGL3530-152_sat port1 port2 PARAMS: Cpar=3.9pF Ind=1.5uH
X1 port1 port2 Model1C PARAMS:
+ R1=10
+ R2=0.0139
+ C= {Cpar}
+ K1=0.000001
+ K2=0.22
+ K3= {Ind}
+ K4=0.000001
+ K5=0.000001
+ L=1.3749E-06
+ Is=9.6676
+ a=0.8271
+ L_Z0=0
+ L_EL=0
+ L_F0=0E6
+ PkZ=1705.45057
.ends XGL3530-152_sat

*======================================================================
* SPICE Model generated by Coilcraft
* Coilcraft Part Number : XGL3530-222
* Inductance = 2.2uH
*======================================================================
* Model Parameters:
*   Valid Frequency Range = 0.1MHz-400MHz
*   Ambient Temperature = 25 degC
*   Inductor Frequency Model
*   Use model for Frequency Domain simulations
*======================================================================
.subckt XGL3530-222_freq port1 port2 PARAMS: Cpar=3.9pF Ind=2.2uH
X1 port1 port2 Model1A PARAMS:
+ R1=12
+ R2=0.021
+ C= {Cpar}
+ K1=0.000001
+ K2=0.35
+ K3= {Ind}
+ K4=0.000001
+ K5=0.000001
+ L=2.1135E-06
+ Is=7.3283
+ a=0.8277
+ L_Z0=0
+ L_EL=0
+ L_F0=0E6
+ PkZ=2445.67105
.ends XGL3530-222_freq

*======================================================================
* SPICE Model generated by Coilcraft
* Coilcraft Part Number : XGL3530-222
* Inductance = 2.2uH
*======================================================================
* Model Parameters:
*   Valid Frequency Range = 0.1MHz-400MHz
*   Ambient Temperature = 25 degC
*   Inductor Saturation Model
*   Use model for Time Domain simulations
*======================================================================
.subckt XGL3530-222_sat port1 port2 PARAMS: Cpar=3.9pF Ind=2.2uH
X1 port1 port2 Model1C PARAMS:
+ R1=12
+ R2=0.021
+ C= {Cpar}
+ K1=0.000001
+ K2=0.35
+ K3= {Ind}
+ K4=0.000001
+ K5=0.000001
+ L=2.1135E-06
+ Is=7.3283
+ a=0.8277
+ L_Z0=0
+ L_EL=0
+ L_F0=0E6
+ PkZ=2445.67105
.ends XGL3530-222_sat

*======================================================================
* SPICE Model generated by Coilcraft
* Coilcraft Part Number : XGL3530-332
* Inductance = 3.3uH
*======================================================================
* Model Parameters:
*   Valid Frequency Range = 0.1MHz-250MHz
*   Ambient Temperature = 25 degC
*   Inductor Frequency Model
*   Use model for Frequency Domain simulations
*======================================================================
.subckt XGL3530-332_freq port1 port2 PARAMS: Cpar=3.8pF Ind=3.3uH
X1 port1 port2 Model1A PARAMS:
+ R1=15
+ R2=0.0336
+ C= {Cpar}
+ K1=0.000001
+ K2=0.55
+ K3= {Ind}
+ K4=0.000001
+ K5=0.000001
+ L=3.173E-06
+ Is=6.1157
+ a=0.8184
+ L_Z0=0
+ L_EL=0
+ L_F0=0E6
+ PkZ=3466.43627
.ends XGL3530-332_freq

*======================================================================
* SPICE Model generated by Coilcraft
* Coilcraft Part Number : XGL3530-332
* Inductance = 3.3uH
*======================================================================
* Model Parameters:
*   Valid Frequency Range = 0.1MHz-250MHz
*   Ambient Temperature = 25 degC
*   Inductor Saturation Model
*   Use model for Time Domain simulations
*======================================================================
.subckt XGL3530-332_sat port1 port2 PARAMS: Cpar=3.8pF Ind=3.3uH
X1 port1 port2 Model1C PARAMS:
+ R1=15
+ R2=0.0336
+ C= {Cpar}
+ K1=0.000001
+ K2=0.55
+ K3= {Ind}
+ K4=0.000001
+ K5=0.000001
+ L=3.173E-06
+ Is=6.1157
+ a=0.8184
+ L_Z0=0
+ L_EL=0
+ L_F0=0E6
+ PkZ=3466.43627
.ends XGL3530-332_sat

*======================================================================
* SPICE Model generated by Coilcraft
* Coilcraft Part Number : XGL3530-472
* Inductance = 4.7uH
*======================================================================
* Model Parameters:
*   Valid Frequency Range = 0.1MHz-200MHz
*   Ambient Temperature = 25 degC
*   Inductor Frequency Model
*   Use model for Frequency Domain simulations
*======================================================================
.subckt XGL3530-472_freq port1 port2 PARAMS: Cpar=4.5pF Ind=4.7uH
X1 port1 port2 Model1A PARAMS:
+ R1=15
+ R2=0.0452
+ C= {Cpar}
+ K1=0.000001
+ K2=0.8
+ K3= {Ind}
+ K4=0.000001
+ K5=0.000001
+ L=4.7961E-06
+ Is=4.8683
+ a=0.8255
+ L_Z0=0
+ L_EL=0
+ L_F0=0E6
+ PkZ=4408.26487
.ends XGL3530-472_freq

*======================================================================
* SPICE Model generated by Coilcraft
* Coilcraft Part Number : XGL3530-472
* Inductance = 4.7uH
*======================================================================
* Model Parameters:
*   Valid Frequency Range = 0.1MHz-200MHz
*   Ambient Temperature = 25 degC
*   Inductor Saturation Model
*   Use model for Time Domain simulations
*======================================================================
.subckt XGL3530-472_sat port1 port2 PARAMS: Cpar=4.5pF Ind=4.7uH
X1 port1 port2 Model1C PARAMS:
+ R1=15
+ R2=0.0452
+ C= {Cpar}
+ K1=0.000001
+ K2=0.8
+ K3= {Ind}
+ K4=0.000001
+ K5=0.000001
+ L=4.7961E-06
+ Is=4.8683
+ a=0.8255
+ L_Z0=0
+ L_EL=0
+ L_F0=0E6
+ PkZ=4408.26487
.ends XGL3530-472_sat

*======================================================================
* SPICE Model generated by Coilcraft
* Coilcraft Part Number : XGL3530-562
* Inductance = 5.6uH
*======================================================================
* Model Parameters:
*   Valid Frequency Range = 0.1MHz-200MHz
*   Ambient Temperature = 25 degC
*   Inductor Frequency Model
*   Use model for Frequency Domain simulations
*======================================================================
.subckt XGL3530-562_freq port1 port2 PARAMS: Cpar=4.3pF Ind=5.6uH
X1 port1 port2 Model1A PARAMS:
+ R1=14
+ R2=0.0567
+ C= {Cpar}
+ K1=0.000001
+ K2=0.85
+ K3= {Ind}
+ K4=0.000001
+ K5=0.000001
+ L=5.6092E-06
+ Is=4.3387
+ a=0.834
+ L_Z0=0
+ L_EL=0
+ L_F0=0E6
+ PkZ=4601.32728
.ends XGL3530-562_freq

*======================================================================
* SPICE Model generated by Coilcraft
* Coilcraft Part Number : XGL3530-562
* Inductance = 5.6uH
*======================================================================
* Model Parameters:
*   Valid Frequency Range = 0.1MHz-200MHz
*   Ambient Temperature = 25 degC
*   Inductor Saturation Model
*   Use model for Time Domain simulations
*======================================================================
.subckt XGL3530-562_sat port1 port2 PARAMS: Cpar=4.3pF Ind=5.6uH
X1 port1 port2 Model1C PARAMS:
+ R1=14
+ R2=0.0567
+ C= {Cpar}
+ K1=0.000001
+ K2=0.85
+ K3= {Ind}
+ K4=0.000001
+ K5=0.000001
+ L=5.6092E-06
+ Is=4.3387
+ a=0.834
+ L_Z0=0
+ L_EL=0
+ L_F0=0E6
+ PkZ=4601.32728
.ends XGL3530-562_sat

*======================================================================
* SPICE Model generated by Coilcraft
* Coilcraft Part Number : XGL3530-682
* Inductance = 6.8uH
*======================================================================
* Model Parameters:
*   Valid Frequency Range = 0.1MHz-150MHz
*   Ambient Temperature = 25 degC
*   Inductor Frequency Model
*   Use model for Frequency Domain simulations
*======================================================================
.subckt XGL3530-682_freq port1 port2 PARAMS: Cpar=4.3pF Ind=6.8uH
X1 port1 port2 Model1A PARAMS:
+ R1=10
+ R2=0.0701
+ C= {Cpar}
+ K1=0.000001
+ K2=1.15
+ K3= {Ind}
+ K4=0.000001
+ K5=0.000001
+ L=6.8369E-06
+ Is=3.2808
+ a=1.1401
+ L_Z0=0
+ L_EL=0
+ L_F0=0E6
+ PkZ=6002.14062
.ends XGL3530-682_freq

*======================================================================
* SPICE Model generated by Coilcraft
* Coilcraft Part Number : XGL3530-682
* Inductance = 6.8uH
*======================================================================
* Model Parameters:
*   Valid Frequency Range = 0.1MHz-150MHz
*   Ambient Temperature = 25 degC
*   Inductor Saturation Model
*   Use model for Time Domain simulations
*======================================================================
.subckt XGL3530-682_sat port1 port2 PARAMS: Cpar=4.3pF Ind=6.8uH
X1 port1 port2 Model1C PARAMS:
+ R1=10
+ R2=0.0701
+ C= {Cpar}
+ K1=0.000001
+ K2=1.15
+ K3= {Ind}
+ K4=0.000001
+ K5=0.000001
+ L=6.8369E-06
+ Is=3.2808
+ a=1.1401
+ L_Z0=0
+ L_EL=0
+ L_F0=0E6
+ PkZ=6002.14062
.ends XGL3530-682_sat

*======================================================================
* SPICE Model generated by Coilcraft
* Coilcraft Saturation Inductor Model
*======================================================================
* Model Parameters:
*   Valid Frequency Range Varies by Inductor
*   Ambient Temperature = 25 degC
*   Current Saturable Inductor Model
*======================================================================
.subckt Model1C Lin Lout PARAMS:
+ R1=1
+ R2=1
+ C=1
+ L=1
+ Is=1
+ a=1
+ PkZ=94.2 * {L} *1e6
R2 Lin N001 {R2}
R3 N001 Lout {PkZ}
C1 N001 N002 {C}
R1 N002 Lout {R1}
L1 N001 Lout flux={L*Is}*pwrs(tanh(pwrs((x/{Is}),{a})),{1/a})
.ends Model1C





*======================================================================
* SPICE Model generated by Coilcraft
* Coilcraft Power Inductor Model
*======================================================================
* Model Parameters:
*   Valid Frequency Range Varies by Inductor
*   Ambient Temperature = 25 degC
*   DC Bias Current = 0 A
*   Frequency Dependent Inductor Model
*======================================================================
.subckt Model1A Lin Lout PARAMS:
+ R1=1
+ R2=1
+ C=1
+ K1=1
+ K2=1
+ K3=1
+ K4=1
+ K5=1
R2 N001 Lin {R2}
R1 Lout N002 {R1}
C1 N002 N001 {C}
G_Rvar2 N001 Lout LAPLACE { V(N001, Lout) } {1/K2/(-S*S/4/PI^2)^0.25}
G_Rvar1 N001 N003 LAPLACE { V(N001, N003) } {1/K1/(-S*S/4/PI^2)^0.25}
G_Lvar N003 Lout  LAPLACE { V(N003, Lout) } {1/(S*1e-6*({K3*1e6}-({K4}*LOG({K5}*(sqrt(-S*S)/(2*pi))))))}
*This large resistance to ground has been added to prevent a floating node error
R3 N003 0 100Meg
.ends Model1A

*======================================================================
* SPICE Model generated by Coilcraft
* Coilcraft Impedance Inductor Model
*======================================================================
* Model Parameters:
*   Valid Frequency Range Varies by Inductor
*   Ambient Temperature = 25 degC
*   Time Domain Inductor Impedance Model
*======================================================================
.subckt Model1D Lin Lout PARAMS:
+ R1=1
+ R2=1
+ C=1
+ K3=1
+ PkZ=1
R2 Lin N001 {R2}
R3 N001 Lout {PkZ}
C1 N001 N002 {C}
R1 N002 Lout {R1}
L1 N001 Lout {K3}
.ends Model1D









.subckt Coilcraft_Inductor Lin Lout
R1 Lout Lin 100Meg
.ends Coilcraft_Inductor
