*======================================================================
* SPICE Model generated by Coilcraft
* Coilcraft Part Number : XGL3520-101
* Inductance = 100nH
*======================================================================
* Model Parameters:
*   Valid Frequency Range = 0.1MHz-500MHz
*   Ambient Temperature = 25 degC
*   Inductor Frequency Model
*   Use model for Frequency Domain simulations
*======================================================================
.subckt XGL3520-101_freq port1 port2 PARAMS: Cpar=2.4pF Ind=0.1uH
X1 port1 port2 Model1A PARAMS:
+ R1=10
+ R2=0.0027
+ C= {Cpar}
+ K1=0.00002
+ K2=0.014
+ K3= {Ind}
+ K4=0.000056
+ K5=0.0037
+ L=1.003E-07
+ Is=31.0546
+ a=0.7899
+ L_Z0=0
+ L_EL=0
+ L_F0=0E6
+ PkZ=237.804017
.ends XGL3520-101_freq

*======================================================================
* SPICE Model generated by Coilcraft
* Coilcraft Part Number : XGL3520-101
* Inductance = 100nH
*======================================================================
* Model Parameters:
*   Valid Frequency Range = 0.1MHz-500MHz
*   Ambient Temperature = 25 degC
*   Inductor Saturation Model
*   Use model for Time Domain simulations
*======================================================================
.subckt XGL3520-101_sat port1 port2 PARAMS: Cpar=2.381pF Ind=0.1uH
X1 port1 port2 Model1C PARAMS:
+ R1=10
+ R2=0.0027
+ C= {Cpar}
+ K1=0.00002
+ K2=0.014
+ K3= {Ind}
+ K4=0.000056
+ K5=0.0037
+ L=1.003E-07
+ Is=31.0546
+ a=0.7899
+ L_Z0=0
+ L_EL=0
+ L_F0=0E6
+ PkZ=237.804017
.ends XGL3520-101_sat

*======================================================================
* SPICE Model generated by Coilcraft
* Coilcraft Part Number : XGL3520-201
* Inductance = 200nH
*======================================================================
* Model Parameters:
*   Valid Frequency Range = 0.1MHz-450MHz
*   Ambient Temperature = 25 degC
*   Inductor Frequency Model
*   Use model for Frequency Domain simulations
*======================================================================
.subckt XGL3520-201_freq port1 port2 PARAMS: Cpar=3.2pF Ind=0.2uH
X1 port1 port2 Model1A PARAMS:
+ R1=4
+ R2=0.0037
+ C= {Cpar}
+ K1=0.00001
+ K2=0.03
+ K3= {Ind}
+ K4=0.0025
+ K5=0.0001
+ L=1.967E-07
+ Is=22.2951
+ a=0.7921
+ L_Z0=0
+ L_EL=0
+ L_F0=0E6
+ PkZ=423.33787
.ends XGL3520-201_freq

*======================================================================
* SPICE Model generated by Coilcraft
* Coilcraft Part Number : XGL3520-201
* Inductance = 200nH
*======================================================================
* Model Parameters:
*   Valid Frequency Range = 0.1MHz-450MHz
*   Ambient Temperature = 25 degC
*   Inductor Saturation Model
*   Use model for Time Domain simulations
*======================================================================
.subckt XGL3520-201_sat port1 port2 PARAMS: Cpar=2.804pF Ind=0.2uH
X1 port1 port2 Model1C PARAMS:
+ R1=4
+ R2=0.0037
+ C= {Cpar}
+ K1=0.00001
+ K2=0.03
+ K3= {Ind}
+ K4=0.0025
+ K5=0.0001
+ L=1.967E-07
+ Is=22.2951
+ a=0.7921
+ L_Z0=0
+ L_EL=0
+ L_F0=0E6
+ PkZ=423.33787
.ends XGL3520-201_sat

*======================================================================
* SPICE Model generated by Coilcraft
* Coilcraft Part Number : XGL3520-301
* Inductance = 300nH
*======================================================================
* Model Parameters:
*   Valid Frequency Range = 0.1MHz-300MHz
*   Ambient Temperature = 25 degC
*   Inductor Frequency Model
*   Use model for Frequency Domain simulations
*======================================================================
.subckt XGL3520-301_freq port1 port2 PARAMS: Cpar=3.3pF Ind=0.3uH
X1 port1 port2 Model1A PARAMS:
+ R1=7
+ R2=0.0048
+ C= {Cpar}
+ K1=0.00001
+ K2=0.04
+ K3= {Ind}
+ K4=0.0005
+ K5=0.0001
+ L=2.96E-07
+ Is=18.9952
+ a=0.7857
+ L_Z0=0
+ L_EL=0
+ L_F0=0E6
+ PkZ=488.212181
.ends XGL3520-301_freq

*======================================================================
* SPICE Model generated by Coilcraft
* Coilcraft Part Number : XGL3520-301
* Inductance = 300nH
*======================================================================
* Model Parameters:
*   Valid Frequency Range = 0.1MHz-300MHz
*   Ambient Temperature = 25 degC
*   Inductor Saturation Model
*   Use model for Time Domain simulations
*======================================================================
.subckt XGL3520-301_sat port1 port2 PARAMS: Cpar=3.247pF Ind=0.3uH
X1 port1 port2 Model1C PARAMS:
+ R1=7
+ R2=0.0048
+ C= {Cpar}
+ K1=0.00001
+ K2=0.04
+ K3= {Ind}
+ K4=0.0005
+ K5=0.0001
+ L=2.96E-07
+ Is=18.9952
+ a=0.7857
+ L_Z0=0
+ L_EL=0
+ L_F0=0E6
+ PkZ=488.212181
.ends XGL3520-301_sat

*======================================================================
* SPICE Model generated by Coilcraft
* Coilcraft Part Number : XGL3520-451
* Inductance = 450nH
*======================================================================
* Model Parameters:
*   Valid Frequency Range = 0.1MHz-300MHz
*   Ambient Temperature = 25 degC
*   Inductor Frequency Model
*   Use model for Frequency Domain simulations
*======================================================================
.subckt XGL3520-451_freq port1 port2 PARAMS: Cpar=3.6pF Ind=0.45uH
X1 port1 port2 Model1A PARAMS:
+ R1=4
+ R2=0.0068
+ C= {Cpar}
+ K1=0.00004
+ K2=0.06
+ K3= {Ind}
+ K4=0.0013
+ K5=0.0038
+ L=4.419E-07
+ Is=15.3652
+ a=0.7814
+ L_Z0=0
+ L_EL=0
+ L_F0=0E6
+ PkZ=660.865657
.ends XGL3520-451_freq

*======================================================================
* SPICE Model generated by Coilcraft
* Coilcraft Part Number : XGL3520-451
* Inductance = 450nH
*======================================================================
* Model Parameters:
*   Valid Frequency Range = 0.1MHz-300MHz
*   Ambient Temperature = 25 degC
*   Inductor Saturation Model
*   Use model for Time Domain simulations
*======================================================================
.subckt XGL3520-451_sat port1 port2 PARAMS: Cpar=3.464pF Ind=0.45uH
X1 port1 port2 Model1C PARAMS:
+ R1=4
+ R2=0.0068
+ C= {Cpar}
+ K1=0.00004
+ K2=0.06
+ K3= {Ind}
+ K4=0.0013
+ K5=0.0038
+ L=4.419E-07
+ Is=15.3652
+ a=0.7814
+ L_Z0=0
+ L_EL=0
+ L_F0=0E6
+ PkZ=660.865657
.ends XGL3520-451_sat

*======================================================================
* SPICE Model generated by Coilcraft
* Coilcraft Part Number : XGL3520-561
* Inductance = 560nH
*======================================================================
* Model Parameters:
*   Valid Frequency Range = 0.1MHz-300MHz
*   Ambient Temperature = 25 degC
*   Inductor Frequency Model
*   Use model for Frequency Domain simulations
*======================================================================
.subckt XGL3520-561_freq port1 port2 PARAMS: Cpar=4pF Ind=0.56uH
X1 port1 port2 Model1A PARAMS:
+ R1=3
+ R2=0.0091
+ C= {Cpar}
+ K1=0.000001
+ K2=0.08
+ K3= {Ind}
+ K4=0.000001
+ K5=0.000001
+ L=6.003E-07
+ Is=13.9641
+ a=0.7541
+ L_Z0=0
+ L_EL=0
+ L_F0=0E6
+ PkZ=810.602513
.ends XGL3520-561_freq

*======================================================================
* SPICE Model generated by Coilcraft
* Coilcraft Part Number : XGL3520-561
* Inductance = 560nH
*======================================================================
* Model Parameters:
*   Valid Frequency Range = 0.1MHz-300MHz
*   Ambient Temperature = 25 degC
*   Inductor Saturation Model
*   Use model for Time Domain simulations
*======================================================================
.subckt XGL3520-561_sat port1 port2 PARAMS: Cpar=4pF Ind=0.56uH
X1 port1 port2 Model1C PARAMS:
+ R1=3
+ R2=0.0091
+ C= {Cpar}
+ K1=0.000001
+ K2=0.08
+ K3= {Ind}
+ K4=0.000001
+ K5=0.000001
+ L=6.003E-07
+ Is=13.9641
+ a=0.7541
+ L_Z0=0
+ L_EL=0
+ L_F0=0E6
+ PkZ=810.602513
.ends XGL3520-561_sat

*======================================================================
* SPICE Model generated by Coilcraft
* Coilcraft Part Number : XGL3520-681
* Inductance = 680nH
*======================================================================
* Model Parameters:
*   Valid Frequency Range = 0.1MHz-300MHz
*   Ambient Temperature = 25 degC
*   Inductor Frequency Model
*   Use model for Frequency Domain simulations
*======================================================================
.subckt XGL3520-681_freq port1 port2 PARAMS: Cpar=3.6pF Ind=0.68uH
X1 port1 port2 Model1A PARAMS:
+ R1=2
+ R2=0.0097
+ C= {Cpar}
+ K1=0.000001
+ K2=0.09
+ K3= {Ind}
+ K4=0.000001
+ K5=0.000001
+ L=6.327E-07
+ Is=13.1775
+ a=0.768
+ L_Z0=0
+ L_EL=0
+ L_F0=0E6
+ PkZ=899.042517
.ends XGL3520-681_freq

*======================================================================
* SPICE Model generated by Coilcraft
* Coilcraft Part Number : XGL3520-681
* Inductance = 680nH
*======================================================================
* Model Parameters:
*   Valid Frequency Range = 0.1MHz-300MHz
*   Ambient Temperature = 25 degC
*   Inductor Saturation Model
*   Use model for Time Domain simulations
*======================================================================
.subckt XGL3520-681_sat port1 port2 PARAMS: Cpar=3.6pF Ind=0.68uH
X1 port1 port2 Model1C PARAMS:
+ R1=2
+ R2=0.0097
+ C= {Cpar}
+ K1=0.000001
+ K2=0.09
+ K3= {Ind}
+ K4=0.000001
+ K5=0.000001
+ L=6.327E-07
+ Is=13.1775
+ a=0.768
+ L_Z0=0
+ L_EL=0
+ L_F0=0E6
+ PkZ=899.042517
.ends XGL3520-681_sat

*======================================================================
* SPICE Model generated by Coilcraft
* Coilcraft Part Number : XGL3520-821
* Inductance = 820nH
*======================================================================
* Model Parameters:
*   Valid Frequency Range = 0.1MHz-300MHz
*   Ambient Temperature = 25 degC
*   Inductor Frequency Model
*   Use model for Frequency Domain simulations
*======================================================================
.subckt XGL3520-821_freq port1 port2 PARAMS: Cpar=3.6pF Ind=0.82uH
X1 port1 port2 Model1A PARAMS:
+ R1=4
+ R2=0.012
+ C= {Cpar}
+ K1=0.000001
+ K2=0.11
+ K3= {Ind}
+ K4=0.0035
+ K5=0.24
+ L=7.671E-07
+ Is=12.461
+ a=0.7547
+ L_Z0=0
+ L_EL=0
+ L_F0=0E6
+ PkZ=1057.10241
.ends XGL3520-821_freq

*======================================================================
* SPICE Model generated by Coilcraft
* Coilcraft Part Number : XGL3520-821
* Inductance = 820nH
*======================================================================
* Model Parameters:
*   Valid Frequency Range = 0.1MHz-300MHz
*   Ambient Temperature = 25 degC
*   Inductor Saturation Model
*   Use model for Time Domain simulations
*======================================================================
.subckt XGL3520-821_sat port1 port2 PARAMS: Cpar=3.34pF Ind=0.82uH
X1 port1 port2 Model1C PARAMS:
+ R1=4
+ R2=0.012
+ C= {Cpar}
+ K1=0.000001
+ K2=0.11
+ K3= {Ind}
+ K4=0.0035
+ K5=0.24
+ L=7.671E-07
+ Is=12.461
+ a=0.7547
+ L_Z0=0
+ L_EL=0
+ L_F0=0E6
+ PkZ=1057.10241
.ends XGL3520-821_sat

*======================================================================
* SPICE Model generated by Coilcraft
* Coilcraft Part Number : XGL3520-102
* Inductance = 1uH
*======================================================================
* Model Parameters:
*   Valid Frequency Range = 0.1MHz-300MHz
*   Ambient Temperature = 25 degC
*   Inductor Frequency Model
*   Use model for Frequency Domain simulations
*======================================================================
.subckt XGL3520-102_freq port1 port2 PARAMS: Cpar=4pF Ind=1uH
X1 port1 port2 Model1A PARAMS:
+ R1=4
+ R2=0.0148
+ C= {Cpar}
+ K1=0.000001
+ K2=0.14
+ K3= {Ind}
+ K4=0.00407
+ K5=0.00000334
+ L=9.777E-07
+ Is=10.6063
+ a=0.7759
+ L_Z0=0
+ L_EL=0
+ L_F0=0E6
+ PkZ=1230.73394
.ends XGL3520-102_freq

*======================================================================
* SPICE Model generated by Coilcraft
* Coilcraft Part Number : XGL3520-102
* Inductance = 1uH
*======================================================================
* Model Parameters:
*   Valid Frequency Range = 0.1MHz-300MHz
*   Ambient Temperature = 25 degC
*   Inductor Saturation Model
*   Use model for Time Domain simulations
*======================================================================
.subckt XGL3520-102_sat port1 port2 PARAMS: Cpar=3.909pF Ind=1uH
X1 port1 port2 Model1C PARAMS:
+ R1=4
+ R2=0.0148
+ C= {Cpar}
+ K1=0.000001
+ K2=0.14
+ K3= {Ind}
+ K4=0.00407
+ K5=0.00000334
+ L=9.777E-07
+ Is=10.6063
+ a=0.7759
+ L_Z0=0
+ L_EL=0
+ L_F0=0E6
+ PkZ=1230.73394
.ends XGL3520-102_sat

*======================================================================
* SPICE Model generated by Coilcraft
* Coilcraft Part Number : XGL3520-122
* Inductance = 1.2uH
*======================================================================
* Model Parameters:
*   Valid Frequency Range = 0.1MHz-300MHz
*   Ambient Temperature = 25 degC
*   Inductor Frequency Model
*   Use model for Frequency Domain simulations
*======================================================================
.subckt XGL3520-122_freq port1 port2 PARAMS: Cpar=3.8pF Ind=1.2uH
X1 port1 port2 Model1A PARAMS:
+ R1=6
+ R2=0.0182
+ C= {Cpar}
+ K1=0.000001
+ K2=0.165
+ K3= {Ind}
+ K4=0.00404
+ K5=0.0918
+ L=1.1349E-06
+ Is=9.6677
+ a=0.75
+ L_Z0=0
+ L_EL=0
+ L_F0=0E6
+ PkZ=1403.29795
.ends XGL3520-122_freq

*======================================================================
* SPICE Model generated by Coilcraft
* Coilcraft Part Number : XGL3520-122
* Inductance = 1.2uH
*======================================================================
* Model Parameters:
*   Valid Frequency Range = 0.1MHz-300MHz
*   Ambient Temperature = 25 degC
*   Inductor Saturation Model
*   Use model for Time Domain simulations
*======================================================================
.subckt XGL3520-122_sat port1 port2 PARAMS: Cpar=3.599pF Ind=1.2uH
X1 port1 port2 Model1C PARAMS:
+ R1=6
+ R2=0.0182
+ C= {Cpar}
+ K1=0.000001
+ K2=0.165
+ K3= {Ind}
+ K4=0.00404
+ K5=0.0918
+ L=1.1349E-06
+ Is=9.6677
+ a=0.75
+ L_Z0=0
+ L_EL=0
+ L_F0=0E6
+ PkZ=1403.29795
.ends XGL3520-122_sat

*======================================================================
* SPICE Model generated by Coilcraft
* Coilcraft Part Number : XGL3520-152
* Inductance = 1.5uH
*======================================================================
* Model Parameters:
*   Valid Frequency Range = 0.1MHz-300MHz
*   Ambient Temperature = 25 degC
*   Inductor Frequency Model
*   Use model for Frequency Domain simulations
*======================================================================
.subckt XGL3520-152_freq port1 port2 PARAMS: Cpar=4.4pF Ind=1.5uH
X1 port1 port2 Model1A PARAMS:
+ R1=5
+ R2=0.0228
+ C= {Cpar}
+ K1=0.000001
+ K2=0.186
+ K3= {Ind}
+ K4=0.00598
+ K5=0.0917
+ L=1.4886E-06
+ Is=8.2257
+ a=0.7633
+ L_Z0=0
+ L_EL=0
+ L_F0=0E6
+ PkZ=1453.75842
.ends XGL3520-152_freq

*======================================================================
* SPICE Model generated by Coilcraft
* Coilcraft Part Number : XGL3520-152
* Inductance = 1.5uH
*======================================================================
* Model Parameters:
*   Valid Frequency Range = 0.1MHz-300MHz
*   Ambient Temperature = 25 degC
*   Inductor Saturation Model
*   Use model for Time Domain simulations
*======================================================================
.subckt XGL3520-152_sat port1 port2 PARAMS: Cpar=4.127pF Ind=1.5uH
X1 port1 port2 Model1C PARAMS:
+ R1=5
+ R2=0.0228
+ C= {Cpar}
+ K1=0.000001
+ K2=0.186
+ K3= {Ind}
+ K4=0.00598
+ K5=0.0917
+ L=1.4886E-06
+ Is=8.2257
+ a=0.7633
+ L_Z0=0
+ L_EL=0
+ L_F0=0E6
+ PkZ=1453.75842
.ends XGL3520-152_sat

*======================================================================
* SPICE Model generated by Coilcraft
* Coilcraft Part Number : XGL3520-182
* Inductance = 1.8uH
*======================================================================
* Model Parameters:
*   Valid Frequency Range = 0.1MHz-200MHz
*   Ambient Temperature = 25 degC
*   Inductor Frequency Model
*   Use model for Frequency Domain simulations
*======================================================================
.subckt XGL3520-182_freq port1 port2 PARAMS: Cpar=4.1pF Ind=1.8uH
X1 port1 port2 Model1A PARAMS:
+ R1=6
+ R2=0.0278
+ C= {Cpar}
+ K1=0.00005
+ K2=0.264
+ K3= {Ind}
+ K4=0.00547
+ K5=0.0251
+ L=1.7184E-06
+ Is=8.507
+ a=0.7171
+ L_Z0=0
+ L_EL=0
+ L_F0=0E6
+ PkZ=1981.5775
.ends XGL3520-182_freq

*======================================================================
* SPICE Model generated by Coilcraft
* Coilcraft Part Number : XGL3520-182
* Inductance = 1.8uH
*======================================================================
* Model Parameters:
*   Valid Frequency Range = 0.1MHz-200MHz
*   Ambient Temperature = 25 degC
*   Inductor Saturation Model
*   Use model for Time Domain simulations
*======================================================================
.subckt XGL3520-182_sat port1 port2 PARAMS: Cpar=3.923pF Ind=1.8uH
X1 port1 port2 Model1C PARAMS:
+ R1=6
+ R2=0.0278
+ C= {Cpar}
+ K1=0.00005
+ K2=0.264
+ K3= {Ind}
+ K4=0.00547
+ K5=0.0251
+ L=1.7184E-06
+ Is=8.507
+ a=0.7171
+ L_Z0=0
+ L_EL=0
+ L_F0=0E6
+ PkZ=1981.5775
.ends XGL3520-182_sat

*======================================================================
* SPICE Model generated by Coilcraft
* Coilcraft Part Number : XGL3520-222
* Inductance = 2.2uH
*======================================================================
* Model Parameters:
*   Valid Frequency Range = 0.1MHz-200MHz
*   Ambient Temperature = 25 degC
*   Inductor Frequency Model
*   Use model for Frequency Domain simulations
*======================================================================
.subckt XGL3520-222_freq port1 port2 PARAMS: Cpar=4.5pF Ind=2.2uH
X1 port1 port2 Model1A PARAMS:
+ R1=6
+ R2=0.0318
+ C= {Cpar}
+ K1=0.00001
+ K2=0.3
+ K3= {Ind}
+ K4=0.0128
+ K5=0.042
+ L=1.9527E-06
+ Is=7.2364
+ a=0.7715
+ L_Z0=0
+ L_EL=0
+ L_F0=0E6
+ PkZ=2118.72935
.ends XGL3520-222_freq

*======================================================================
* SPICE Model generated by Coilcraft
* Coilcraft Part Number : XGL3520-222
* Inductance = 2.2uH
*======================================================================
* Model Parameters:
*   Valid Frequency Range = 0.1MHz-200MHz
*   Ambient Temperature = 25 degC
*   Inductor Saturation Model
*   Use model for Time Domain simulations
*======================================================================
.subckt XGL3520-222_sat port1 port2 PARAMS: Cpar=4.119pF Ind=2.2uH
X1 port1 port2 Model1C PARAMS:
+ R1=6
+ R2=0.0318
+ C= {Cpar}
+ K1=0.00001
+ K2=0.3
+ K3= {Ind}
+ K4=0.0128
+ K5=0.042
+ L=1.9527E-06
+ Is=7.2364
+ a=0.7715
+ L_Z0=0
+ L_EL=0
+ L_F0=0E6
+ PkZ=2118.72935
.ends XGL3520-222_sat

*======================================================================
* SPICE Model generated by Coilcraft
* Coilcraft Part Number : XGL3520-332
* Inductance = 3.3uH
*======================================================================
* Model Parameters:
*   Valid Frequency Range = 0.1MHz-200MHz
*   Ambient Temperature = 25 degC
*   Inductor Frequency Model
*   Use model for Frequency Domain simulations
*======================================================================
.subckt XGL3520-332_freq port1 port2 PARAMS: Cpar=4.6pF Ind=3.3uH
X1 port1 port2 Model1A PARAMS:
+ R1=7
+ R2=0.0494
+ C= {Cpar}
+ K1=0.000067
+ K2=0.428
+ K3= {Ind}
+ K4=0.01548983
+ K5=0.000613
+ L=3.0457E-06
+ Is=5.3529
+ a=0.7978
+ L_Z0=0
+ L_EL=0
+ L_F0=0E6
+ PkZ=2688.08725
.ends XGL3520-332_freq

*======================================================================
* SPICE Model generated by Coilcraft
* Coilcraft Part Number : XGL3520-332
* Inductance = 3.3uH
*======================================================================
* Model Parameters:
*   Valid Frequency Range = 0.1MHz-200MHz
*   Ambient Temperature = 25 degC
*   Inductor Saturation Model
*   Use model for Time Domain simulations
*======================================================================
.subckt XGL3520-332_sat port1 port2 PARAMS: Cpar=4.381pF Ind=3.3uH
X1 port1 port2 Model1C PARAMS:
+ R1=7
+ R2=0.0494
+ C= {Cpar}
+ K1=0.000067
+ K2=0.428
+ K3= {Ind}
+ K4=0.01548983
+ K5=0.000613
+ L=3.0457E-06
+ Is=5.3529
+ a=0.7978
+ L_Z0=0
+ L_EL=0
+ L_F0=0E6
+ PkZ=2688.08725
.ends XGL3520-332_sat

*======================================================================
* SPICE Model generated by Coilcraft
* Coilcraft Part Number : XGL3520-472
* Inductance = 4.7uH
*======================================================================
* Model Parameters:
*   Valid Frequency Range = 0.1MHz-200MHz
*   Ambient Temperature = 25 degC
*   Inductor Frequency Model
*   Use model for Frequency Domain simulations
*======================================================================
.subckt XGL3520-472_freq port1 port2 PARAMS: Cpar=5.1pF Ind=4.7uH
X1 port1 port2 Model1A PARAMS:
+ R1=9
+ R2=0.0726
+ C= {Cpar}
+ K1=0.000067
+ K2=0.609
+ K3= {Ind}
+ K4=0.0127
+ K5=0.000612
+ L=4.5257E-06
+ Is=4.4847
+ a=0.7797
+ L_Z0=0
+ L_EL=0
+ L_F0=0E6
+ PkZ=3372.58237
.ends XGL3520-472_freq

*======================================================================
* SPICE Model generated by Coilcraft
* Coilcraft Part Number : XGL3520-472
* Inductance = 4.7uH
*======================================================================
* Model Parameters:
*   Valid Frequency Range = 0.1MHz-200MHz
*   Ambient Temperature = 25 degC
*   Inductor Saturation Model
*   Use model for Time Domain simulations
*======================================================================
.subckt XGL3520-472_sat port1 port2 PARAMS: Cpar=4.964pF Ind=4.7uH
X1 port1 port2 Model1C PARAMS:
+ R1=9
+ R2=0.0726
+ C= {Cpar}
+ K1=0.000067
+ K2=0.609
+ K3= {Ind}
+ K4=0.0127
+ K5=0.000612
+ L=4.5257E-06
+ Is=4.4847
+ a=0.7797
+ L_Z0=0
+ L_EL=0
+ L_F0=0E6
+ PkZ=3372.58237
.ends XGL3520-472_sat

*======================================================================
* SPICE Model generated by Coilcraft
* Coilcraft Saturation Inductor Model
*======================================================================
* Model Parameters:
*   Valid Frequency Range Varies by Inductor
*   Ambient Temperature = 25 degC
*   Current Saturable Inductor Model
*======================================================================
.subckt Model1C Lin Lout PARAMS:
+ R1=1
+ R2=1
+ C=1
+ L=1
+ Is=1
+ a=1
+ PkZ=94.2 * {L} *1e6
R2 Lin N001 {R2}
R3 N001 Lout {PkZ}
C1 N001 N002 {C}
R1 N002 Lout {R1}
L1 N001 Lout flux={L*Is}*pwrs(tanh(pwrs((x/{Is}),{a})),{1/a})
.ends Model1C





*======================================================================
* SPICE Model generated by Coilcraft
* Coilcraft Power Inductor Model
*======================================================================
* Model Parameters:
*   Valid Frequency Range Varies by Inductor
*   Ambient Temperature = 25 degC
*   DC Bias Current = 0 A
*   Frequency Dependent Inductor Model
*======================================================================
.subckt Model1A Lin Lout PARAMS:
+ R1=1
+ R2=1
+ C=1
+ K1=1
+ K2=1
+ K3=1
+ K4=1
+ K5=1
R2 N001 Lin {R2}
R1 Lout N002 {R1}
C1 N002 N001 {C}
G_Rvar2 N001 Lout LAPLACE { V(N001, Lout) } {1/K2/(-S*S/4/PI^2)^0.25}
G_Rvar1 N001 N003 LAPLACE { V(N001, N003) } {1/K1/(-S*S/4/PI^2)^0.25}
G_Lvar N003 Lout  LAPLACE { V(N003, Lout) } {1/(S*1e-6*({K3*1e6}-({K4}*LOG({K5}*(sqrt(-S*S)/(2*pi))))))}
*This large resistance to ground has been added to prevent a floating node error
R3 N003 0 100Meg
.ends Model1A


.subckt Coilcraft_Inductor Lin Lout
R1 Lout Lin 100Meg
.ends Coilcraft_Inductor
