*======================================================================
* SPICE Model generated by Coilcraft
* Coilcraft Part Number : XGL3515-900
* Inductance = 90nH
*======================================================================
* Model Parameters:
*   Valid Frequency Range = 0.1MHz-650MHz
*   Ambient Temperature = 25 degC
*   Inductor Frequency Model
*   Use model for Frequency Domain simulations
*======================================================================
.subckt XGL3515-900_freq port1 port2 PARAMS: Cpar=2.4pF Ind=0.09uH
X1 port1 port2 Model1A PARAMS:
+ R1=5
+ R2=0.0026
+ C= {Cpar}
+ K1=0.000001
+ K2=0.013
+ K3= {Ind}
+ K4=0.000001
+ K5=0.000001
+ L=8.96E-08
+ Is=38.242
+ a=0.7161
+ L_Z0=0
+ L_EL=0
+ L_F0=0E6
+ PkZ=233.076257
.ends XGL3515-900_freq

*======================================================================
* SPICE Model generated by Coilcraft
* Coilcraft Part Number : XGL3515-900
* Inductance = 90nH
*======================================================================
* Model Parameters:
*   Valid Frequency Range = 0.1MHz-650MHz
*   Ambient Temperature = 25 degC
*   Inductor Saturation Model
*   Use model for Time Domain simulations
*======================================================================
.subckt XGL3515-900_sat port1 port2 PARAMS: Cpar=2.4pF Ind=0.09uH
X1 port1 port2 Model1C PARAMS:
+ R1=5
+ R2=0.0026
+ C= {Cpar}
+ K1=0.000001
+ K2=0.013
+ K3= {Ind}
+ K4=0.000001
+ K5=0.000001
+ L=8.96E-08
+ Is=38.242
+ a=0.7161
+ L_Z0=0
+ L_EL=0
+ L_F0=0E6
+ PkZ=233.076257
.ends XGL3515-900_sat

*======================================================================
* SPICE Model generated by Coilcraft
* Coilcraft Part Number : XGL3515-101
* Inductance = 100nH
*======================================================================
* Model Parameters:
*   Valid Frequency Range = 0.1MHz-500MHz
*   Ambient Temperature = 25 degC
*   Inductor Frequency Model
*   Use model for Frequency Domain simulations
*======================================================================
.subckt XGL3515-101_freq port1 port2 PARAMS: Cpar=2.35pF Ind=0.1uH
X1 port1 port2 Model1A PARAMS:
+ R1=4
+ R2=0.0028
+ C= {Cpar}
+ K1=0.000001
+ K2=0.014
+ K3= {Ind}
+ K4=0.000001
+ K5=0.000001
+ L=9.81E-08
+ Is=34.7182
+ a=0.7421
+ L_Z0=0
+ L_EL=0
+ L_F0=0E6
+ PkZ=247.745223
.ends XGL3515-101_freq

*======================================================================
* SPICE Model generated by Coilcraft
* Coilcraft Part Number : XGL3515-101
* Inductance = 100nH
*======================================================================
* Model Parameters:
*   Valid Frequency Range = 0.1MHz-500MHz
*   Ambient Temperature = 25 degC
*   Inductor Saturation Model
*   Use model for Time Domain simulations
*======================================================================
.subckt XGL3515-101_sat port1 port2 PARAMS: Cpar=2.35pF Ind=0.1uH
X1 port1 port2 Model1C PARAMS:
+ R1=4
+ R2=0.0028
+ C= {Cpar}
+ K1=0.000001
+ K2=0.014
+ K3= {Ind}
+ K4=0.000001
+ K5=0.000001
+ L=9.81E-08
+ Is=34.7182
+ a=0.7421
+ L_Z0=0
+ L_EL=0
+ L_F0=0E6
+ PkZ=247.745223
.ends XGL3515-101_sat

*======================================================================
* SPICE Model generated by Coilcraft
* Coilcraft Part Number : XGL3515-181
* Inductance = 180nH
*======================================================================
* Model Parameters:
*   Valid Frequency Range = 0.1MHz-500MHz
*   Ambient Temperature = 25 degC
*   Inductor Frequency Model
*   Use model for Frequency Domain simulations
*======================================================================
.subckt XGL3515-181_freq port1 port2 PARAMS: Cpar=3.1pF Ind=0.18uH
X1 port1 port2 Model1A PARAMS:
+ R1=6
+ R2=0.0041
+ C= {Cpar}
+ K1=0.000001
+ K2=0.027
+ K3= {Ind}
+ K4=0.000001
+ K5=0.000001
+ L=1.794E-07
+ Is=26.3798
+ a=0.7211
+ L_Z0=0
+ L_EL=0
+ L_F0=0E6
+ PkZ=378.665543
.ends XGL3515-181_freq

*======================================================================
* SPICE Model generated by Coilcraft
* Coilcraft Part Number : XGL3515-181
* Inductance = 180nH
*======================================================================
* Model Parameters:
*   Valid Frequency Range = 0.1MHz-500MHz
*   Ambient Temperature = 25 degC
*   Inductor Saturation Model
*   Use model for Time Domain simulations
*======================================================================
.subckt XGL3515-181_sat port1 port2 PARAMS: Cpar=3.1pF Ind=0.18uH
X1 port1 port2 Model1C PARAMS:
+ R1=6
+ R2=0.0041
+ C= {Cpar}
+ K1=0.000001
+ K2=0.027
+ K3= {Ind}
+ K4=0.000001
+ K5=0.000001
+ L=1.794E-07
+ Is=26.3798
+ a=0.7211
+ L_Z0=0
+ L_EL=0
+ L_F0=0E6
+ PkZ=378.665543
.ends XGL3515-181_sat

*======================================================================
* SPICE Model generated by Coilcraft
* Coilcraft Part Number : XGL3515-221
* Inductance = 220nH
*======================================================================
* Model Parameters:
*   Valid Frequency Range = 0.1MHz-500MHz
*   Ambient Temperature = 25 degC
*   Inductor Frequency Model
*   Use model for Frequency Domain simulations
*======================================================================
.subckt XGL3515-221_freq port1 port2 PARAMS: Cpar=2.75pF Ind=0.22uH
X1 port1 port2 Model1A PARAMS:
+ R1=7
+ R2=0.0056
+ C= {Cpar}
+ K1=0.000001
+ K2=0.0288
+ K3= {Ind}
+ K4=0.000001
+ K5=0.000001
+ L=2.098E-07
+ Is=22.0674
+ a=0.7382
+ L_Z0=0
+ L_EL=0
+ L_F0=0E6
+ PkZ=397.62223
.ends XGL3515-221_freq

*======================================================================
* SPICE Model generated by Coilcraft
* Coilcraft Part Number : XGL3515-221
* Inductance = 220nH
*======================================================================
* Model Parameters:
*   Valid Frequency Range = 0.1MHz-500MHz
*   Ambient Temperature = 25 degC
*   Inductor Saturation Model
*   Use model for Time Domain simulations
*======================================================================
.subckt XGL3515-221_sat port1 port2 PARAMS: Cpar=2.75pF Ind=0.22uH
X1 port1 port2 Model1C PARAMS:
+ R1=7
+ R2=0.0056
+ C= {Cpar}
+ K1=0.000001
+ K2=0.0288
+ K3= {Ind}
+ K4=0.000001
+ K5=0.000001
+ L=2.098E-07
+ Is=22.0674
+ a=0.7382
+ L_Z0=0
+ L_EL=0
+ L_F0=0E6
+ PkZ=397.62223
.ends XGL3515-221_sat

*======================================================================
* SPICE Model generated by Coilcraft
* Coilcraft Part Number : XGL3515-331
* Inductance = 330nH
*======================================================================
* Model Parameters:
*   Valid Frequency Range = 0.1MHz-500MHz
*   Ambient Temperature = 25 degC
*   Inductor Frequency Model
*   Use model for Frequency Domain simulations
*======================================================================
.subckt XGL3515-331_freq port1 port2 PARAMS: Cpar=3.26pF Ind=0.33uH
X1 port1 port2 Model1A PARAMS:
+ R1=8
+ R2=0.0074
+ C= {Cpar}
+ K1=0.000001
+ K2=0.046
+ K3= {Ind}
+ K4=0.000001
+ K5=0.000001
+ L=3.268E-07
+ Is=18.4866
+ a=0.7288
+ L_Z0=0
+ L_EL=0
+ L_F0=0E6
+ PkZ=545.249014
.ends XGL3515-331_freq

*======================================================================
* SPICE Model generated by Coilcraft
* Coilcraft Part Number : XGL3515-331
* Inductance = 330nH
*======================================================================
* Model Parameters:
*   Valid Frequency Range = 0.1MHz-500MHz
*   Ambient Temperature = 25 degC
*   Inductor Saturation Model
*   Use model for Time Domain simulations
*======================================================================
.subckt XGL3515-331_sat port1 port2 PARAMS: Cpar=3.26pF Ind=0.33uH
X1 port1 port2 Model1C PARAMS:
+ R1=8
+ R2=0.0074
+ C= {Cpar}
+ K1=0.000001
+ K2=0.046
+ K3= {Ind}
+ K4=0.000001
+ K5=0.000001
+ L=3.268E-07
+ Is=18.4866
+ a=0.7288
+ L_Z0=0
+ L_EL=0
+ L_F0=0E6
+ PkZ=545.249014
.ends XGL3515-331_sat

*======================================================================
* SPICE Model generated by Coilcraft
* Coilcraft Part Number : XGL3515-451
* Inductance = 450nH
*======================================================================
* Model Parameters:
*   Valid Frequency Range = 0.1MHz-500MHz
*   Ambient Temperature = 25 degC
*   Inductor Frequency Model
*   Use model for Frequency Domain simulations
*======================================================================
.subckt XGL3515-451_freq port1 port2 PARAMS: Cpar=4.1pF Ind=0.45uH
X1 port1 port2 Model1A PARAMS:
+ R1=8
+ R2=0.0095
+ C= {Cpar}
+ K1=0.000001
+ K2=0.066
+ K3= {Ind}
+ K4=0.000001
+ K5=0.000001
+ L=4.677E-07
+ Is=15.9293
+ a=0.7105
+ L_Z0=0
+ L_EL=0
+ L_F0=0E6
+ PkZ=679.045579
.ends XGL3515-451_freq

*======================================================================
* SPICE Model generated by Coilcraft
* Coilcraft Part Number : XGL3515-451
* Inductance = 450nH
*======================================================================
* Model Parameters:
*   Valid Frequency Range = 0.1MHz-500MHz
*   Ambient Temperature = 25 degC
*   Inductor Saturation Model
*   Use model for Time Domain simulations
*======================================================================
.subckt XGL3515-451_sat port1 port2 PARAMS: Cpar=4.1pF Ind=0.45uH
X1 port1 port2 Model1C PARAMS:
+ R1=8
+ R2=0.0095
+ C= {Cpar}
+ K1=0.000001
+ K2=0.066
+ K3= {Ind}
+ K4=0.000001
+ K5=0.000001
+ L=4.677E-07
+ Is=15.9293
+ a=0.7105
+ L_Z0=0
+ L_EL=0
+ L_F0=0E6
+ PkZ=679.045579
.ends XGL3515-451_sat

*======================================================================
* SPICE Model generated by Coilcraft
* Coilcraft Part Number : XGL3515-561
* Inductance = 560nH
*======================================================================
* Model Parameters:
*   Valid Frequency Range = 0.1MHz-400MHz
*   Ambient Temperature = 25 degC
*   Inductor Frequency Model
*   Use model for Frequency Domain simulations
*======================================================================
.subckt XGL3515-561_freq port1 port2 PARAMS: Cpar=4.36pF Ind=0.56uH
X1 port1 port2 Model1A PARAMS:
+ R1=5
+ R2=0.0118
+ C= {Cpar}
+ K1=0.000001
+ K2=0.0777
+ K3= {Ind}
+ K4=0.000001
+ K5=0.000001
+ L=5.474E-07
+ Is=13.4858
+ a=0.7465
+ L_Z0=0
+ L_EL=0
+ L_F0=0E6
+ PkZ=760.916802
.ends XGL3515-561_freq

*======================================================================
* SPICE Model generated by Coilcraft
* Coilcraft Part Number : XGL3515-561
* Inductance = 560nH
*======================================================================
* Model Parameters:
*   Valid Frequency Range = 0.1MHz-400MHz
*   Ambient Temperature = 25 degC
*   Inductor Saturation Model
*   Use model for Time Domain simulations
*======================================================================
.subckt XGL3515-561_sat port1 port2 PARAMS: Cpar=4.36pF Ind=0.56uH
X1 port1 port2 Model1C PARAMS:
+ R1=5
+ R2=0.0118
+ C= {Cpar}
+ K1=0.000001
+ K2=0.0777
+ K3= {Ind}
+ K4=0.000001
+ K5=0.000001
+ L=5.474E-07
+ Is=13.4858
+ a=0.7465
+ L_Z0=0
+ L_EL=0
+ L_F0=0E6
+ PkZ=760.916802
.ends XGL3515-561_sat

*======================================================================
* SPICE Model generated by Coilcraft
* Coilcraft Part Number : XGL3515-681
* Inductance = 680nH
*======================================================================
* Model Parameters:
*   Valid Frequency Range = 0.1MHz-400MHz
*   Ambient Temperature = 25 degC
*   Inductor Frequency Model
*   Use model for Frequency Domain simulations
*======================================================================
.subckt XGL3515-681_freq port1 port2 PARAMS: Cpar=4.6pF Ind=0.68uH
X1 port1 port2 Model1A PARAMS:
+ R1=8
+ R2=0.0133
+ C= {Cpar}
+ K1=0.000001
+ K2=0.098
+ K3= {Ind}
+ K4=0.000001
+ K5=0.000001
+ L=0
+ Is=0
+ a=0
+ L_Z0=0
+ L_EL=0
+ L_F0=0E6
+ PkZ=885.101248
.ends XGL3515-681_freq

*======================================================================
* SPICE Model generated by Coilcraft
* Coilcraft Part Number : XGL3515-681
* Inductance = 680nH
*======================================================================
* Model Parameters:
*   Valid Frequency Range = 0.1MHz-400MHz
*   Ambient Temperature = 25 degC
*   Inductor Impedance Model
*   Use model for Time Domain simulations
*======================================================================
.subckt XGL3515-681_imp port1 port2 PARAMS: Cpar=4.6pF Ind=0.68uH
X1 port1 port2 Model1D PARAMS:
+ R1=8
+ R2=0.0133
+ C= {Cpar}
+ K1=0.000001
+ K2=0.098
+ K3= {Ind}
+ K4=0.000001
+ K5=0.000001
+ L=0
+ Is=0
+ a=0
+ L_Z0=0
+ L_EL=0
+ L_F0=0E6
+ PkZ=885.101248
.ends XGL3515-681_imp

*======================================================================
* SPICE Model generated by Coilcraft
* Coilcraft Part Number : XGL3515-821
* Inductance = 820nH
*======================================================================
* Model Parameters:
*   Valid Frequency Range = 0.1MHz-400MHz
*   Ambient Temperature = 25 degC
*   Inductor Frequency Model
*   Use model for Frequency Domain simulations
*======================================================================
.subckt XGL3515-821_freq port1 port2 PARAMS: Cpar=4.1pF Ind=0.82uH
X1 port1 port2 Model1A PARAMS:
+ R1=7
+ R2=0.0184
+ C= {Cpar}
+ K1=0.000001
+ K2=0.1093
+ K3= {Ind}
+ K4=0.000001
+ K5=0.000001
+ L=7.964E-07
+ Is=11.1762
+ a=0.7293
+ L_Z0=0
+ L_EL=0
+ L_F0=0E6
+ PkZ=983.249927
.ends XGL3515-821_freq

*======================================================================
* SPICE Model generated by Coilcraft
* Coilcraft Part Number : XGL3515-821
* Inductance = 820nH
*======================================================================
* Model Parameters:
*   Valid Frequency Range = 0.1MHz-400MHz
*   Ambient Temperature = 25 degC
*   Inductor Saturation Model
*   Use model for Time Domain simulations
*======================================================================
.subckt XGL3515-821_sat port1 port2 PARAMS: Cpar=4.1pF Ind=0.82uH
X1 port1 port2 Model1C PARAMS:
+ R1=7
+ R2=0.0184
+ C= {Cpar}
+ K1=0.000001
+ K2=0.1093
+ K3= {Ind}
+ K4=0.000001
+ K5=0.000001
+ L=7.964E-07
+ Is=11.1762
+ a=0.7293
+ L_Z0=0
+ L_EL=0
+ L_F0=0E6
+ PkZ=983.249927
.ends XGL3515-821_sat

*======================================================================
* SPICE Model generated by Coilcraft
* Coilcraft Part Number : XGL3515-102
* Inductance = 1uH
*======================================================================
* Model Parameters:
*   Valid Frequency Range = 0.1MHz-400MHz
*   Ambient Temperature = 25 degC
*   Inductor Frequency Model
*   Use model for Frequency Domain simulations
*======================================================================
.subckt XGL3515-102_freq port1 port2 PARAMS: Cpar=4.5pF Ind=1uH
X1 port1 port2 Model1A PARAMS:
+ R1=7
+ R2=0.0213
+ C= {Cpar}
+ K1=0.000001
+ K2=0.14
+ K3= {Ind}
+ K4=0.000001
+ K5=0.000001
+ L=9.764E-07
+ Is=10.5508
+ a=0.7141
+ L_Z0=0
+ L_EL=0
+ L_F0=0E6
+ PkZ=1168.01009
.ends XGL3515-102_freq

*======================================================================
* SPICE Model generated by Coilcraft
* Coilcraft Part Number : XGL3515-102
* Inductance = 1uH
*======================================================================
* Model Parameters:
*   Valid Frequency Range = 0.1MHz-400MHz
*   Ambient Temperature = 25 degC
*   Inductor Saturation Model
*   Use model for Time Domain simulations
*======================================================================
.subckt XGL3515-102_sat port1 port2 PARAMS: Cpar=4.5pF Ind=1uH
X1 port1 port2 Model1C PARAMS:
+ R1=7
+ R2=0.0213
+ C= {Cpar}
+ K1=0.000001
+ K2=0.14
+ K3= {Ind}
+ K4=0.000001
+ K5=0.000001
+ L=9.764E-07
+ Is=10.5508
+ a=0.7141
+ L_Z0=0
+ L_EL=0
+ L_F0=0E6
+ PkZ=1168.01009
.ends XGL3515-102_sat

*======================================================================
* SPICE Model generated by Coilcraft
* Coilcraft Part Number : XGL3515-122
* Inductance = 1.2uH
*======================================================================
* Model Parameters:
*   Valid Frequency Range = 0.1MHz-400MHz
*   Ambient Temperature = 25 degC
*   Inductor Frequency Model
*   Use model for Frequency Domain simulations
*======================================================================
.subckt XGL3515-122_freq port1 port2 PARAMS: Cpar=4.1pF Ind=1.2uH
X1 port1 port2 Model1A PARAMS:
+ R1=7
+ R2=0.0272
+ C= {Cpar}
+ K1=0.000001
+ K2=0.153
+ K3= {Ind}
+ K4=0.000001
+ K5=0.000001
+ L=1.1024E-06
+ Is=9.1665
+ a=0.7464
+ L_Z0=0
+ L_EL=0
+ L_F0=0E6
+ PkZ=1257.04019
.ends XGL3515-122_freq

*======================================================================
* SPICE Model generated by Coilcraft
* Coilcraft Part Number : XGL3515-122
* Inductance = 1.2uH
*======================================================================
* Model Parameters:
*   Valid Frequency Range = 0.1MHz-400MHz
*   Ambient Temperature = 25 degC
*   Inductor Saturation Model
*   Use model for Time Domain simulations
*======================================================================
.subckt XGL3515-122_sat port1 port2 PARAMS: Cpar=4.1pF Ind=1.2uH
X1 port1 port2 Model1C PARAMS:
+ R1=7
+ R2=0.0272
+ C= {Cpar}
+ K1=0.000001
+ K2=0.153
+ K3= {Ind}
+ K4=0.000001
+ K5=0.000001
+ L=1.1024E-06
+ Is=9.1665
+ a=0.7464
+ L_Z0=0
+ L_EL=0
+ L_F0=0E6
+ PkZ=1257.04019
.ends XGL3515-122_sat

*======================================================================
* SPICE Model generated by Coilcraft
* Coilcraft Part Number : XGL3515-152
* Inductance = 1.5uH
*======================================================================
* Model Parameters:
*   Valid Frequency Range = 0.1MHz-300MHz
*   Ambient Temperature = 25 degC
*   Inductor Frequency Model
*   Use model for Frequency Domain simulations
*======================================================================
.subckt XGL3515-152_freq port1 port2 PARAMS: Cpar=5pF Ind=1.5uH
X1 port1 port2 Model1A PARAMS:
+ R1=7
+ R2=0.0363
+ C= {Cpar}
+ K1=0.000001
+ K2=0.194
+ K3= {Ind}
+ K4=0.000001
+ K5=0.000001
+ L=1.4209E-06
+ Is=8.1809
+ a=0.7353
+ L_Z0=0
+ L_EL=0
+ L_F0=0E6
+ PkZ=1429.58615
.ends XGL3515-152_freq

*======================================================================
* SPICE Model generated by Coilcraft
* Coilcraft Part Number : XGL3515-152
* Inductance = 1.5uH
*======================================================================
* Model Parameters:
*   Valid Frequency Range = 0.1MHz-300MHz
*   Ambient Temperature = 25 degC
*   Inductor Saturation Model
*   Use model for Time Domain simulations
*======================================================================
.subckt XGL3515-152_sat port1 port2 PARAMS: Cpar=5pF Ind=1.5uH
X1 port1 port2 Model1C PARAMS:
+ R1=7
+ R2=0.0363
+ C= {Cpar}
+ K1=0.000001
+ K2=0.194
+ K3= {Ind}
+ K4=0.000001
+ K5=0.000001
+ L=1.4209E-06
+ Is=8.1809
+ a=0.7353
+ L_Z0=0
+ L_EL=0
+ L_F0=0E6
+ PkZ=1429.58615
.ends XGL3515-152_sat

*======================================================================
* SPICE Model generated by Coilcraft
* Coilcraft Part Number : XGL3515-182
* Inductance = 1.8uH
*======================================================================
* Model Parameters:
*   Valid Frequency Range = 0.1MHz-300MHz
*   Ambient Temperature = 25 degC
*   Inductor Frequency Model
*   Use model for Frequency Domain simulations
*======================================================================
.subckt XGL3515-182_freq port1 port2 PARAMS: Cpar=4.2pF Ind=1.8uH
X1 port1 port2 Model1A PARAMS:
+ R1=9
+ R2=0.0416
+ C= {Cpar}
+ K1=0.000001
+ K2=0.21
+ K3= {Ind}
+ K4=0.000001
+ K5=0.000001
+ L=1.8339E-06
+ Is=6.9699
+ a=0.727
+ L_Z0=0
+ L_EL=0
+ L_F0=0E6
+ PkZ=1545.85652
.ends XGL3515-182_freq

*======================================================================
* SPICE Model generated by Coilcraft
* Coilcraft Part Number : XGL3515-182
* Inductance = 1.8uH
*======================================================================
* Model Parameters:
*   Valid Frequency Range = 0.1MHz-300MHz
*   Ambient Temperature = 25 degC
*   Inductor Saturation Model
*   Use model for Time Domain simulations
*======================================================================
.subckt XGL3515-182_sat port1 port2 PARAMS: Cpar=4.2pF Ind=1.8uH
X1 port1 port2 Model1C PARAMS:
+ R1=9
+ R2=0.0416
+ C= {Cpar}
+ K1=0.000001
+ K2=0.21
+ K3= {Ind}
+ K4=0.000001
+ K5=0.000001
+ L=1.8339E-06
+ Is=6.9699
+ a=0.727
+ L_Z0=0
+ L_EL=0
+ L_F0=0E6
+ PkZ=1545.85652
.ends XGL3515-182_sat

*======================================================================
* SPICE Model generated by Coilcraft
* Coilcraft Part Number : XGL3515-222
* Inductance = 2.2uH
*======================================================================
* Model Parameters:
*   Valid Frequency Range = 0.1MHz-300MHz
*   Ambient Temperature = 25 degC
*   Inductor Frequency Model
*   Use model for Frequency Domain simulations
*======================================================================
.subckt XGL3515-222_freq port1 port2 PARAMS: Cpar=5.27pF Ind=2.2uH
X1 port1 port2 Model1A PARAMS:
+ R1=8
+ R2=0.0467
+ C= {Cpar}
+ K1=0.000001
+ K2=0.302
+ K3= {Ind}
+ K4=0.000001
+ K5=0.000001
+ L=2.1233E-06
+ Is=6.7582
+ a=0.7096
+ L_Z0=0
+ L_EL=0
+ L_F0=0E6
+ PkZ=1986.11683
.ends XGL3515-222_freq

*======================================================================
* SPICE Model generated by Coilcraft
* Coilcraft Part Number : XGL3515-222
* Inductance = 2.2uH
*======================================================================
* Model Parameters:
*   Valid Frequency Range = 0.1MHz-300MHz
*   Ambient Temperature = 25 degC
*   Inductor Saturation Model
*   Use model for Time Domain simulations
*======================================================================
.subckt XGL3515-222_sat port1 port2 PARAMS: Cpar=5.27pF Ind=2.2uH
X1 port1 port2 Model1C PARAMS:
+ R1=8
+ R2=0.0467
+ C= {Cpar}
+ K1=0.000001
+ K2=0.302
+ K3= {Ind}
+ K4=0.000001
+ K5=0.000001
+ L=2.1233E-06
+ Is=6.7582
+ a=0.7096
+ L_Z0=0
+ L_EL=0
+ L_F0=0E6
+ PkZ=1986.11683
.ends XGL3515-222_sat

*======================================================================
* SPICE Model generated by Coilcraft
* Coilcraft Saturation Inductor Model
*======================================================================
* Model Parameters:
*   Valid Frequency Range Varies by Inductor
*   Ambient Temperature = 25 degC
*   Current Saturable Inductor Model
*======================================================================
.subckt Model1C Lin Lout PARAMS:
+ R1=1
+ R2=1
+ C=1
+ L=1
+ Is=1
+ a=1
+ PkZ=94.2 * {L} *1e6
R2 Lin N001 {R2}
R3 N001 Lout {PkZ}
C1 N001 N002 {C}
R1 N002 Lout {R1}
L1 N001 Lout flux={L*Is}*pwrs(tanh(pwrs((x/{Is}),{a})),{1/a})
.ends Model1C





*======================================================================
* SPICE Model generated by Coilcraft
* Coilcraft Power Inductor Model
*======================================================================
* Model Parameters:
*   Valid Frequency Range Varies by Inductor
*   Ambient Temperature = 25 degC
*   DC Bias Current = 0 A
*   Frequency Dependent Inductor Model
*======================================================================
.subckt Model1A Lin Lout PARAMS:
+ R1=1
+ R2=1
+ C=1
+ K1=1
+ K2=1
+ K3=1
+ K4=1
+ K5=1
R2 N001 Lin {R2}
R1 Lout N002 {R1}
C1 N002 N001 {C}
G_Rvar2 N001 Lout LAPLACE { V(N001, Lout) } {1/K2/(-S*S/4/PI^2)^0.25}
G_Rvar1 N001 N003 LAPLACE { V(N001, N003) } {1/K1/(-S*S/4/PI^2)^0.25}
G_Lvar N003 Lout  LAPLACE { V(N003, Lout) } {1/(S*1e-6*({K3*1e6}-({K4}*LOG({K5}*(sqrt(-S*S)/(2*pi))))))}
*This large resistance to ground has been added to prevent a floating node error
R3 N003 0 100Meg
.ends Model1A

*======================================================================
* SPICE Model generated by Coilcraft
* Coilcraft Impedance Inductor Model
*======================================================================
* Model Parameters:
*   Valid Frequency Range Varies by Inductor
*   Ambient Temperature = 25 degC
*   Time Domain Inductor Impedance Model
*======================================================================
.subckt Model1D Lin Lout PARAMS:
+ R1=1
+ R2=1
+ C=1
+ K3=1
+ PkZ=1
R2 Lin N001 {R2}
R3 N001 Lout {PkZ}
C1 N001 N002 {C}
R1 N002 Lout {R1}
L1 N001 Lout {K3}
.ends Model1D









.subckt Coilcraft_Inductor Lin Lout
R1 Lout Lin 100Meg
.ends Coilcraft_Inductor
