*======================================================================
* SPICE Model generated by Coilcraft
* Coilcraft Part Number : XGL3512-820
* Inductance = 82nH
*======================================================================
* Model Parameters:
*   Valid Frequency Range = 0.1MHz-750MHz
*   Ambient Temperature = 25 degC
*   Inductor Frequency Model
*   Use model for Frequency Domain simulations
*======================================================================
.subckt XGL3512-820_freq port1 port2 PARAMS: Cpar=2.6pF Ind=0.082uH
X1 port1 port2 Model1A PARAMS:
+ R1=10
+ R2=0.0033
+ C= {Cpar}
+ K1=0.000001
+ K2=0.014
+ K3= {Ind}
+ K4=0.000001
+ K5=0.000001
+ L=8.4E-08
+ Is=41.44
+ a=0.6473
+ L_Z0=0
+ L_EL=0
+ L_F0=0E6
+ PkZ=240.158433
.ends XGL3512-820_freq

*======================================================================
* SPICE Model generated by Coilcraft
* Coilcraft Part Number : XGL3512-820
* Inductance = 82nH
*======================================================================
* Model Parameters:
*   Valid Frequency Range = 0.1MHz-750MHz
*   Ambient Temperature = 25 degC
*   Inductor Saturation Model
*   Use model for Time Domain simulations
*======================================================================
.subckt XGL3512-820_sat port1 port2 PARAMS: Cpar=2.6pF Ind=0.082uH
X1 port1 port2 Model1C PARAMS:
+ R1=10
+ R2=0.0033
+ C= {Cpar}
+ K1=0.000001
+ K2=0.014
+ K3= {Ind}
+ K4=0.000001
+ K5=0.000001
+ L=8.4E-08
+ Is=41.44
+ a=0.6473
+ L_Z0=0
+ L_EL=0
+ L_F0=0E6
+ PkZ=240.158433
.ends XGL3512-820_sat

*======================================================================
* SPICE Model generated by Coilcraft
* Coilcraft Part Number : XGL3512-900
* Inductance = 90nH
*======================================================================
* Model Parameters:
*   Valid Frequency Range = 0.1MHz-750MHz
*   Ambient Temperature = 25 degC
*   Inductor Frequency Model
*   Use model for Frequency Domain simulations
*======================================================================
.subckt XGL3512-900_freq port1 port2 PARAMS: Cpar=2.5pF Ind=0.09uH
X1 port1 port2 Model1A PARAMS:
+ R1=6
+ R2=0.0038
+ C= {Cpar}
+ K1=0.000001
+ K2=0.0143
+ K3= {Ind}
+ K4=0.000001
+ K5=0.000001
+ L=9.17E-08
+ Is=38.1014
+ a=0.6627
+ L_Z0=0
+ L_EL=0
+ L_F0=0E6
+ PkZ=250.967399
.ends XGL3512-900_freq

*======================================================================
* SPICE Model generated by Coilcraft
* Coilcraft Part Number : XGL3512-900
* Inductance = 90nH
*======================================================================
* Model Parameters:
*   Valid Frequency Range = 0.1MHz-750MHz
*   Ambient Temperature = 25 degC
*   Inductor Saturation Model
*   Use model for Time Domain simulations
*======================================================================
.subckt XGL3512-900_sat port1 port2 PARAMS: Cpar=2.5pF Ind=0.09uH
X1 port1 port2 Model1C PARAMS:
+ R1=6
+ R2=0.0038
+ C= {Cpar}
+ K1=0.000001
+ K2=0.0143
+ K3= {Ind}
+ K4=0.000001
+ K5=0.000001
+ L=9.17E-08
+ Is=38.1014
+ a=0.6627
+ L_Z0=0
+ L_EL=0
+ L_F0=0E6
+ PkZ=250.967399
.ends XGL3512-900_sat

*======================================================================
* SPICE Model generated by Coilcraft
* Coilcraft Part Number : XGL3512-101
* Inductance = 100nH
*======================================================================
* Model Parameters:
*   Valid Frequency Range = 0.1MHz-600MHz
*   Ambient Temperature = 25 degC
*   Inductor Frequency Model
*   Use model for Frequency Domain simulations
*======================================================================
.subckt XGL3512-101_freq port1 port2 PARAMS: Cpar=2.56pF Ind=0.1uH
X1 port1 port2 Model1A PARAMS:
+ R1=12
+ R2=0.004
+ C= {Cpar}
+ K1=0.000001
+ K2=0.0154
+ K3= {Ind}
+ K4=0.000001
+ K5=0.000001
+ L=9.76E-08
+ Is=34.2871
+ a=0.6831
+ L_Z0=0
+ L_EL=0
+ L_F0=0E6
+ PkZ=252.033933
.ends XGL3512-101_freq

*======================================================================
* SPICE Model generated by Coilcraft
* Coilcraft Part Number : XGL3512-101
* Inductance = 100nH
*======================================================================
* Model Parameters:
*   Valid Frequency Range = 0.1MHz-600MHz
*   Ambient Temperature = 25 degC
*   Inductor Saturation Model
*   Use model for Time Domain simulations
*======================================================================
.subckt XGL3512-101_sat port1 port2 PARAMS: Cpar=2.56pF Ind=0.1uH
X1 port1 port2 Model1C PARAMS:
+ R1=12
+ R2=0.004
+ C= {Cpar}
+ K1=0.000001
+ K2=0.0154
+ K3= {Ind}
+ K4=0.000001
+ K5=0.000001
+ L=9.76E-08
+ Is=34.2871
+ a=0.6831
+ L_Z0=0
+ L_EL=0
+ L_F0=0E6
+ PkZ=252.033933
.ends XGL3512-101_sat

*======================================================================
* SPICE Model generated by Coilcraft
* Coilcraft Part Number : XGL3512-201
* Inductance = 200nH
*======================================================================
* Model Parameters:
*   Valid Frequency Range = 0.1MHz-500MHz
*   Ambient Temperature = 25 degC
*   Inductor Frequency Model
*   Use model for Frequency Domain simulations
*======================================================================
.subckt XGL3512-201_freq port1 port2 PARAMS: Cpar=3.1pF Ind=0.2uH
X1 port1 port2 Model1A PARAMS:
+ R1=6
+ R2=0.0073
+ C= {Cpar}
+ K1=0.000001
+ K2=0.032
+ K3= {Ind}
+ K4=0.00014
+ K5=0.000001
+ L=2.106E-07
+ Is=23.4232
+ a=0.671
+ L_Z0=0
+ L_EL=0
+ L_F0=0E6
+ PkZ=436.779364
.ends XGL3512-201_freq

*======================================================================
* SPICE Model generated by Coilcraft
* Coilcraft Part Number : XGL3512-201
* Inductance = 200nH
*======================================================================
* Model Parameters:
*   Valid Frequency Range = 0.1MHz-500MHz
*   Ambient Temperature = 25 degC
*   Inductor Saturation Model
*   Use model for Time Domain simulations
*======================================================================
.subckt XGL3512-201_sat port1 port2 PARAMS: Cpar=3.088pF Ind=0.2uH
X1 port1 port2 Model1C PARAMS:
+ R1=6
+ R2=0.0073
+ C= {Cpar}
+ K1=0.000001
+ K2=0.032
+ K3= {Ind}
+ K4=0.00014
+ K5=0.000001
+ L=2.106E-07
+ Is=23.4232
+ a=0.671
+ L_Z0=0
+ L_EL=0
+ L_F0=0E6
+ PkZ=436.779364
.ends XGL3512-201_sat

*======================================================================
* SPICE Model generated by Coilcraft
* Coilcraft Part Number : XGL3512-331
* Inductance = 330nH
*======================================================================
* Model Parameters:
*   Valid Frequency Range = 0.1MHz-500MHz
*   Ambient Temperature = 25 degC
*   Inductor Frequency Model
*   Use model for Frequency Domain simulations
*======================================================================
.subckt XGL3512-331_freq port1 port2 PARAMS: Cpar=4.1pF Ind=0.33uH
X1 port1 port2 Model1A PARAMS:
+ R1=8
+ R2=0.0125
+ C= {Cpar}
+ K1=0.000001
+ K2=0.053
+ K3= {Ind}
+ K4=0.000001
+ K5=0.000001
+ L=3.534E-07
+ Is=18.0501
+ a=0.6699
+ L_Z0=0
+ L_EL=0
+ L_F0=0E6
+ PkZ=583.963156
.ends XGL3512-331_freq

*======================================================================
* SPICE Model generated by Coilcraft
* Coilcraft Part Number : XGL3512-331
* Inductance = 330nH
*======================================================================
* Model Parameters:
*   Valid Frequency Range = 0.1MHz-500MHz
*   Ambient Temperature = 25 degC
*   Inductor Saturation Model
*   Use model for Time Domain simulations
*======================================================================
.subckt XGL3512-331_sat port1 port2 PARAMS: Cpar=4.1pF Ind=0.33uH
X1 port1 port2 Model1C PARAMS:
+ R1=8
+ R2=0.0125
+ C= {Cpar}
+ K1=0.000001
+ K2=0.053
+ K3= {Ind}
+ K4=0.000001
+ K5=0.000001
+ L=3.534E-07
+ Is=18.0501
+ a=0.6699
+ L_Z0=0
+ L_EL=0
+ L_F0=0E6
+ PkZ=583.963156
.ends XGL3512-331_sat

*======================================================================
* SPICE Model generated by Coilcraft
* Coilcraft Part Number : XGL3512-401
* Inductance = 400nH
*======================================================================
* Model Parameters:
*   Valid Frequency Range = 0.1MHz-400MHz
*   Ambient Temperature = 25 degC
*   Inductor Frequency Model
*   Use model for Frequency Domain simulations
*======================================================================
.subckt XGL3512-401_freq port1 port2 PARAMS: Cpar=3.8pF Ind=0.4uH
X1 port1 port2 Model1A PARAMS:
+ R1=6
+ R2=0.0142
+ C= {Cpar}
+ K1=0.000001
+ K2=0.0556
+ K3= {Ind}
+ K4=0.000001
+ K5=0.000001
+ L=3.969E-07
+ Is=15.6587
+ a=0.7005
+ L_Z0=0
+ L_EL=0
+ L_F0=0E6
+ PkZ=609.745424
.ends XGL3512-401_freq

*======================================================================
* SPICE Model generated by Coilcraft
* Coilcraft Part Number : XGL3512-401
* Inductance = 400nH
*======================================================================
* Model Parameters:
*   Valid Frequency Range = 0.1MHz-400MHz
*   Ambient Temperature = 25 degC
*   Inductor Saturation Model
*   Use model for Time Domain simulations
*======================================================================
.subckt XGL3512-401_sat port1 port2 PARAMS: Cpar=3.8pF Ind=0.4uH
X1 port1 port2 Model1C PARAMS:
+ R1=6
+ R2=0.0142
+ C= {Cpar}
+ K1=0.000001
+ K2=0.0556
+ K3= {Ind}
+ K4=0.000001
+ K5=0.000001
+ L=3.969E-07
+ Is=15.6587
+ a=0.7005
+ L_Z0=0
+ L_EL=0
+ L_F0=0E6
+ PkZ=609.745424
.ends XGL3512-401_sat

*======================================================================
* SPICE Model generated by Coilcraft
* Coilcraft Part Number : XGL3512-521
* Inductance = 520nH
*======================================================================
* Model Parameters:
*   Valid Frequency Range = 0.1MHz-400MHz
*   Ambient Temperature = 25 degC
*   Inductor Frequency Model
*   Use model for Frequency Domain simulations
*======================================================================
.subckt XGL3512-521_freq port1 port2 PARAMS: Cpar=4pF Ind=0.52uH
X1 port1 port2 Model1A PARAMS:
+ R1=5
+ R2=0.0179
+ C= {Cpar}
+ K1=0.000001
+ K2=0.082
+ K3= {Ind}
+ K4=0.000001
+ K5=0.000001
+ L=5.305E-07
+ Is=14.7514
+ a=0.6718
+ L_Z0=0
+ L_EL=0
+ L_F0=0E6
+ PkZ=833.750694
.ends XGL3512-521_freq

*======================================================================
* SPICE Model generated by Coilcraft
* Coilcraft Part Number : XGL3512-521
* Inductance = 520nH
*======================================================================
* Model Parameters:
*   Valid Frequency Range = 0.1MHz-400MHz
*   Ambient Temperature = 25 degC
*   Inductor Saturation Model
*   Use model for Time Domain simulations
*======================================================================
.subckt XGL3512-521_sat port1 port2 PARAMS: Cpar=4pF Ind=0.52uH
X1 port1 port2 Model1C PARAMS:
+ R1=5
+ R2=0.0179
+ C= {Cpar}
+ K1=0.000001
+ K2=0.082
+ K3= {Ind}
+ K4=0.000001
+ K5=0.000001
+ L=5.305E-07
+ Is=14.7514
+ a=0.6718
+ L_Z0=0
+ L_EL=0
+ L_F0=0E6
+ PkZ=833.750694
.ends XGL3512-521_sat

*======================================================================
* SPICE Model generated by Coilcraft
* Coilcraft Part Number : XGL3512-621
* Inductance = 620nH
*======================================================================
* Model Parameters:
*   Valid Frequency Range = 0.1MHz-400MHz
*   Ambient Temperature = 25 degC
*   Inductor Frequency Model
*   Use model for Frequency Domain simulations
*======================================================================
.subckt XGL3512-621_freq port1 port2 PARAMS: Cpar=4.3pF Ind=0.62uH
X1 port1 port2 Model1A PARAMS:
+ R1=5
+ R2=0.0238
+ C= {Cpar}
+ K1=0.000001
+ K2=0.088
+ K3= {Ind}
+ K4=0.000001
+ K5=0.000001
+ L=6.26E-07
+ Is=12.465
+ a=0.7029
+ L_Z0=0
+ L_EL=0
+ L_F0=0E6
+ PkZ=843.386058
.ends XGL3512-621_freq

*======================================================================
* SPICE Model generated by Coilcraft
* Coilcraft Part Number : XGL3512-621
* Inductance = 620nH
*======================================================================
* Model Parameters:
*   Valid Frequency Range = 0.1MHz-400MHz
*   Ambient Temperature = 25 degC
*   Inductor Saturation Model
*   Use model for Time Domain simulations
*======================================================================
.subckt XGL3512-621_sat port1 port2 PARAMS: Cpar=4.3pF Ind=0.62uH
X1 port1 port2 Model1C PARAMS:
+ R1=5
+ R2=0.0238
+ C= {Cpar}
+ K1=0.000001
+ K2=0.088
+ K3= {Ind}
+ K4=0.000001
+ K5=0.000001
+ L=6.26E-07
+ Is=12.465
+ a=0.7029
+ L_Z0=0
+ L_EL=0
+ L_F0=0E6
+ PkZ=843.386058
.ends XGL3512-621_sat

*======================================================================
* SPICE Model generated by Coilcraft
* Coilcraft Part Number : XGL3512-821
* Inductance = 820nH
*======================================================================
* Model Parameters:
*   Valid Frequency Range = 0.1MHz-400MHz
*   Ambient Temperature = 25 degC
*   Inductor Frequency Model
*   Use model for Frequency Domain simulations
*======================================================================
.subckt XGL3512-821_freq port1 port2 PARAMS: Cpar=3.86pF Ind=0.82uH
X1 port1 port2 Model1A PARAMS:
+ R1=6
+ R2=0.0282
+ C= {Cpar}
+ K1=0.000001
+ K2=0.124
+ K3= {Ind}
+ K4=0.000001
+ K5=0.000001
+ L=8.284E-07
+ Is=11.2934
+ a=0.6912
+ L_Z0=0
+ L_EL=0
+ L_F0=0E6
+ PkZ=1135.1944
.ends XGL3512-821_freq

*======================================================================
* SPICE Model generated by Coilcraft
* Coilcraft Part Number : XGL3512-821
* Inductance = 820nH
*======================================================================
* Model Parameters:
*   Valid Frequency Range = 0.1MHz-400MHz
*   Ambient Temperature = 25 degC
*   Inductor Saturation Model
*   Use model for Time Domain simulations
*======================================================================
.subckt XGL3512-821_sat port1 port2 PARAMS: Cpar=3.86pF Ind=0.82uH
X1 port1 port2 Model1C PARAMS:
+ R1=6
+ R2=0.0282
+ C= {Cpar}
+ K1=0.000001
+ K2=0.124
+ K3= {Ind}
+ K4=0.000001
+ K5=0.000001
+ L=8.284E-07
+ Is=11.2934
+ a=0.6912
+ L_Z0=0
+ L_EL=0
+ L_F0=0E6
+ PkZ=1135.1944
.ends XGL3512-821_sat

*======================================================================
* SPICE Model generated by Coilcraft
* Coilcraft Part Number : XGL3512-102
* Inductance = 1uH
*======================================================================
* Model Parameters:
*   Valid Frequency Range = 0.1MHz-400MHz
*   Ambient Temperature = 25 degC
*   Inductor Frequency Model
*   Use model for Frequency Domain simulations
*======================================================================
.subckt XGL3512-102_freq port1 port2 PARAMS: Cpar=4.45pF Ind=1uH
X1 port1 port2 Model1A PARAMS:
+ R1=6
+ R2=0.0322
+ C= {Cpar}
+ K1=0.000001
+ K2=0.147
+ K3= {Ind}
+ K4=0.000001
+ K5=0.000001
+ L=9.897E-07
+ Is=10.6559
+ a=0.6528
+ L_Z0=0
+ L_EL=0
+ L_F0=0E6
+ PkZ=1234.72884
.ends XGL3512-102_freq

*======================================================================
* SPICE Model generated by Coilcraft
* Coilcraft Part Number : XGL3512-102
* Inductance = 1uH
*======================================================================
* Model Parameters:
*   Valid Frequency Range = 0.1MHz-400MHz
*   Ambient Temperature = 25 degC
*   Inductor Saturation Model
*   Use model for Time Domain simulations
*======================================================================
.subckt XGL3512-102_sat port1 port2 PARAMS: Cpar=4.45pF Ind=1uH
X1 port1 port2 Model1C PARAMS:
+ R1=6
+ R2=0.0322
+ C= {Cpar}
+ K1=0.000001
+ K2=0.147
+ K3= {Ind}
+ K4=0.000001
+ K5=0.000001
+ L=9.897E-07
+ Is=10.6559
+ a=0.6528
+ L_Z0=0
+ L_EL=0
+ L_F0=0E6
+ PkZ=1234.72884
.ends XGL3512-102_sat

*======================================================================
* SPICE Model generated by Coilcraft
* Coilcraft Part Number : XGL3512-122
* Inductance = 1.2uH
*======================================================================
* Model Parameters:
*   Valid Frequency Range = 0.1MHz-400MHz
*   Ambient Temperature = 25 degC
*   Inductor Frequency Model
*   Use model for Frequency Domain simulations
*======================================================================
.subckt XGL3512-122_freq port1 port2 PARAMS: Cpar=4.5pF Ind=1.2uH
X1 port1 port2 Model1A PARAMS:
+ R1=8
+ R2=0.0374
+ C= {Cpar}
+ K1=0.000001
+ K2=0.174
+ K3= {Ind}
+ K4=0.000001
+ K5=0.000001
+ L=1.2384E-06
+ Is=9.5171
+ a=0.6598
+ L_Z0=0
+ L_EL=0
+ L_F0=0E6
+ PkZ=1380.35583
.ends XGL3512-122_freq

*======================================================================
* SPICE Model generated by Coilcraft
* Coilcraft Part Number : XGL3512-122
* Inductance = 1.2uH
*======================================================================
* Model Parameters:
*   Valid Frequency Range = 0.1MHz-400MHz
*   Ambient Temperature = 25 degC
*   Inductor Saturation Model
*   Use model for Time Domain simulations
*======================================================================
.subckt XGL3512-122_sat port1 port2 PARAMS: Cpar=4.5pF Ind=1.2uH
X1 port1 port2 Model1C PARAMS:
+ R1=8
+ R2=0.0374
+ C= {Cpar}
+ K1=0.000001
+ K2=0.174
+ K3= {Ind}
+ K4=0.000001
+ K5=0.000001
+ L=1.2384E-06
+ Is=9.5171
+ a=0.6598
+ L_Z0=0
+ L_EL=0
+ L_F0=0E6
+ PkZ=1380.35583
.ends XGL3512-122_sat

*======================================================================
* SPICE Model generated by Coilcraft
* Coilcraft Saturation Inductor Model
*======================================================================
* Model Parameters:
*   Valid Frequency Range Varies by Inductor
*   Ambient Temperature = 25 degC
*   Current Saturable Inductor Model
*======================================================================
.subckt Model1C Lin Lout PARAMS:
+ R1=1
+ R2=1
+ C=1
+ L=1
+ Is=1
+ a=1
+ PkZ=94.2 * {L} *1e6
R2 Lin N001 {R2}
R3 N001 Lout {PkZ}
C1 N001 N002 {C}
R1 N002 Lout {R1}
L1 N001 Lout flux={L*Is}*pwrs(tanh(pwrs((x/{Is}),{a})),{1/a})
.ends Model1C





*======================================================================
* SPICE Model generated by Coilcraft
* Coilcraft Power Inductor Model
*======================================================================
* Model Parameters:
*   Valid Frequency Range Varies by Inductor
*   Ambient Temperature = 25 degC
*   DC Bias Current = 0 A
*   Frequency Dependent Inductor Model
*======================================================================
.subckt Model1A Lin Lout PARAMS:
+ R1=1
+ R2=1
+ C=1
+ K1=1
+ K2=1
+ K3=1
+ K4=1
+ K5=1
R2 N001 Lin {R2}
R1 Lout N002 {R1}
C1 N002 N001 {C}
G_Rvar2 N001 Lout LAPLACE { V(N001, Lout) } {1/K2/(-S*S/4/PI^2)^0.25}
G_Rvar1 N001 N003 LAPLACE { V(N001, N003) } {1/K1/(-S*S/4/PI^2)^0.25}
G_Lvar N003 Lout  LAPLACE { V(N003, Lout) } {1/(S*1e-6*({K3*1e6}-({K4}*LOG({K5}*(sqrt(-S*S)/(2*pi))))))}
*This large resistance to ground has been added to prevent a floating node error
R3 N003 0 100Meg
.ends Model1A


.subckt Coilcraft_Inductor Lin Lout
R1 Lout Lin 100Meg
.ends Coilcraft_Inductor
