*======================================================================
* SPICE Model generated by Coilcraft
* Coilcraft Part Number : XGL4018-121
* Inductance = 120nH
*======================================================================
* Model Parameters:
*   Valid Frequency Range = 0.1MHz-500MHz
*   Ambient Temperature = 25 degC
*   Inductor Frequency Model
*   Use model for Frequency Domain simulations
*======================================================================
.subckt XGL4018-121_freq port1 port2 PARAMS: Cpar=3.4pF Ind=0.12uH
X1 port1 port2 Model1A PARAMS:
+ R1=2
+ R2=0.002
+ C= {Cpar}
+ K1=0.000001
+ K2=0.017
+ K3= {Ind}
+ K4=0.000001
+ K5=0.000001
+ L=1.135E-07
+ Is=51.9109
+ a=0.7162
+ L_Z0=0
+ L_EL=0
+ L_F0=0E6
+ PkZ=264.29988
.ends XGL4018-121_freq

*======================================================================
* SPICE Model generated by Coilcraft
* Coilcraft Part Number : XGL4018-121
* Inductance = 120nH
*======================================================================
* Model Parameters:
*   Valid Frequency Range = 0.1MHz-500MHz
*   Ambient Temperature = 25 degC
*   Inductor Saturation Model
*   Use model for Time Domain simulations
*======================================================================
.subckt XGL4018-121_sat port1 port2 PARAMS: Cpar=3.4pF Ind=0.12uH
X1 port1 port2 Model1C PARAMS:
+ R1=2
+ R2=0.002
+ C= {Cpar}
+ K1=0.000001
+ K2=0.017
+ K3= {Ind}
+ K4=0.000001
+ K5=0.000001
+ L=1.135E-07
+ Is=51.9109
+ a=0.7162
+ L_Z0=0
+ L_EL=0
+ L_F0=0E6
+ PkZ=264.29988
.ends XGL4018-121_sat

*======================================================================
* SPICE Model generated by Coilcraft
* Coilcraft Part Number : XGL4018-221
* Inductance = 220nH
*======================================================================
* Model Parameters:
*   Valid Frequency Range = 0.1MHz-400MHz
*   Ambient Temperature = 25 degC
*   Inductor Frequency Model
*   Use model for Frequency Domain simulations
*======================================================================
.subckt XGL4018-221_freq port1 port2 PARAMS: Cpar=4.2pF Ind=0.22uH
X1 port1 port2 Model1A PARAMS:
+ R1=6
+ R2=0.0032
+ C= {Cpar}
+ K1=0.000001
+ K2=0.03
+ K3= {Ind}
+ K4=0.000001
+ K5=0.000001
+ L=2.177E-07
+ Is=35.0151
+ a=0.7034
+ L_Z0=0
+ L_EL=0
+ L_F0=0E6
+ PkZ=369.658893
.ends XGL4018-221_freq

*======================================================================
* SPICE Model generated by Coilcraft
* Coilcraft Part Number : XGL4018-221
* Inductance = 220nH
*======================================================================
* Model Parameters:
*   Valid Frequency Range = 0.1MHz-400MHz
*   Ambient Temperature = 25 degC
*   Inductor Saturation Model
*   Use model for Time Domain simulations
*======================================================================
.subckt XGL4018-221_sat port1 port2 PARAMS: Cpar=4.2pF Ind=0.22uH
X1 port1 port2 Model1C PARAMS:
+ R1=6
+ R2=0.0032
+ C= {Cpar}
+ K1=0.000001
+ K2=0.03
+ K3= {Ind}
+ K4=0.000001
+ K5=0.000001
+ L=2.177E-07
+ Is=35.0151
+ a=0.7034
+ L_Z0=0
+ L_EL=0
+ L_F0=0E6
+ PkZ=369.658893
.ends XGL4018-221_sat

*======================================================================
* SPICE Model generated by Coilcraft
* Coilcraft Part Number : XGL4018-271
* Inductance = 270nH
*======================================================================
* Model Parameters:
*   Valid Frequency Range = 0.1MHz-400MHz
*   Ambient Temperature = 25 degC
*   Inductor Frequency Model
*   Use model for Frequency Domain simulations
*======================================================================
.subckt XGL4018-271_freq port1 port2 PARAMS: Cpar=4.6pF Ind=0.27uH
X1 port1 port2 Model1A PARAMS:
+ R1=4
+ R2=0.004
+ C= {Cpar}
+ K1=0.000001
+ K2=0.038
+ K3= {Ind}
+ K4=0.000001
+ K5=0.000001
+ L=2.664E-07
+ Is=30.108
+ a=0.7478
+ L_Z0=0
+ L_EL=0
+ L_F0=0E6
+ PkZ=440.450546
.ends XGL4018-271_freq

*======================================================================
* SPICE Model generated by Coilcraft
* Coilcraft Part Number : XGL4018-271
* Inductance = 270nH
*======================================================================
* Model Parameters:
*   Valid Frequency Range = 0.1MHz-400MHz
*   Ambient Temperature = 25 degC
*   Inductor Saturation Model
*   Use model for Time Domain simulations
*======================================================================
.subckt XGL4018-271_sat port1 port2 PARAMS: Cpar=4.6pF Ind=0.27uH
X1 port1 port2 Model1C PARAMS:
+ R1=4
+ R2=0.004
+ C= {Cpar}
+ K1=0.000001
+ K2=0.038
+ K3= {Ind}
+ K4=0.000001
+ K5=0.000001
+ L=2.664E-07
+ Is=30.108
+ a=0.7478
+ L_Z0=0
+ L_EL=0
+ L_F0=0E6
+ PkZ=440.450546
.ends XGL4018-271_sat

*======================================================================
* SPICE Model generated by Coilcraft
* Coilcraft Part Number : XGL4018-361
* Inductance = 360nH
*======================================================================
* Model Parameters:
*   Valid Frequency Range = 0.1MHz-300MHz
*   Ambient Temperature = 25 degC
*   Inductor Frequency Model
*   Use model for Frequency Domain simulations
*======================================================================
.subckt XGL4018-361_freq port1 port2 PARAMS: Cpar=5.6pF Ind=0.36uH
X1 port1 port2 Model1A PARAMS:
+ R1=5
+ R2=0.0052
+ C= {Cpar}
+ K1=0.000001
+ K2=0.057
+ K3= {Ind}
+ K4=0.000001
+ K5=0.000001
+ L=3.909E-07
+ Is=26.3326
+ a=0.6942
+ L_Z0=0
+ L_EL=0
+ L_F0=0E6
+ PkZ=576.385203
.ends XGL4018-361_freq

*======================================================================
* SPICE Model generated by Coilcraft
* Coilcraft Part Number : XGL4018-361
* Inductance = 360nH
*======================================================================
* Model Parameters:
*   Valid Frequency Range = 0.1MHz-300MHz
*   Ambient Temperature = 25 degC
*   Inductor Saturation Model
*   Use model for Time Domain simulations
*======================================================================
.subckt XGL4018-361_sat port1 port2 PARAMS: Cpar=5.6pF Ind=0.36uH
X1 port1 port2 Model1C PARAMS:
+ R1=5
+ R2=0.0052
+ C= {Cpar}
+ K1=0.000001
+ K2=0.057
+ K3= {Ind}
+ K4=0.000001
+ K5=0.000001
+ L=3.909E-07
+ Is=26.3326
+ a=0.6942
+ L_Z0=0
+ L_EL=0
+ L_F0=0E6
+ PkZ=576.385203
.ends XGL4018-361_sat

*======================================================================
* SPICE Model generated by Coilcraft
* Coilcraft Part Number : XGL4018-471
* Inductance = 470nH
*======================================================================
* Model Parameters:
*   Valid Frequency Range = 0.1MHz-300MHz
*   Ambient Temperature = 25 degC
*   Inductor Frequency Model
*   Use model for Frequency Domain simulations
*======================================================================
.subckt XGL4018-471_freq port1 port2 PARAMS: Cpar=5.7pF Ind=0.47uH
X1 port1 port2 Model1A PARAMS:
+ R1=6
+ R2=0.0061
+ C= {Cpar}
+ K1=0.000001
+ K2=0.062
+ K3= {Ind}
+ K4=0.000001
+ K5=0.000001
+ L=4.401E-07
+ Is=24.1255
+ a=0.722
+ L_Z0=0
+ L_EL=0
+ L_F0=0E6
+ PkZ=585.313093
.ends XGL4018-471_freq

*======================================================================
* SPICE Model generated by Coilcraft
* Coilcraft Part Number : XGL4018-471
* Inductance = 470nH
*======================================================================
* Model Parameters:
*   Valid Frequency Range = 0.1MHz-300MHz
*   Ambient Temperature = 25 degC
*   Inductor Saturation Model
*   Use model for Time Domain simulations
*======================================================================
.subckt XGL4018-471_sat port1 port2 PARAMS: Cpar=5.7pF Ind=0.47uH
X1 port1 port2 Model1C PARAMS:
+ R1=6
+ R2=0.0061
+ C= {Cpar}
+ K1=0.000001
+ K2=0.062
+ K3= {Ind}
+ K4=0.000001
+ K5=0.000001
+ L=4.401E-07
+ Is=24.1255
+ a=0.722
+ L_Z0=0
+ L_EL=0
+ L_F0=0E6
+ PkZ=585.313093
.ends XGL4018-471_sat

*======================================================================
* SPICE Model generated by Coilcraft
* Coilcraft Part Number : XGL4018-561
* Inductance = 560nH
*======================================================================
* Model Parameters:
*   Valid Frequency Range = 0.1MHz-300MHz
*   Ambient Temperature = 25 degC
*   Inductor Frequency Model
*   Use model for Frequency Domain simulations
*======================================================================
.subckt XGL4018-561_freq port1 port2 PARAMS: Cpar=5.8pF Ind=0.56uH
X1 port1 port2 Model1A PARAMS:
+ R1=4
+ R2=0.0082
+ C= {Cpar}
+ K1=0.000001
+ K2=0.086
+ K3= {Ind}
+ K4=0.000001
+ K5=0.000001
+ L=5.665E-07
+ Is=22.5466
+ a=0.6796
+ L_Z0=0
+ L_EL=0
+ L_F0=0E6
+ PkZ=781.945241
.ends XGL4018-561_freq

*======================================================================
* SPICE Model generated by Coilcraft
* Coilcraft Part Number : XGL4018-561
* Inductance = 560nH
*======================================================================
* Model Parameters:
*   Valid Frequency Range = 0.1MHz-300MHz
*   Ambient Temperature = 25 degC
*   Inductor Saturation Model
*   Use model for Time Domain simulations
*======================================================================
.subckt XGL4018-561_sat port1 port2 PARAMS: Cpar=5.8pF Ind=0.56uH
X1 port1 port2 Model1C PARAMS:
+ R1=4
+ R2=0.0082
+ C= {Cpar}
+ K1=0.000001
+ K2=0.086
+ K3= {Ind}
+ K4=0.000001
+ K5=0.000001
+ L=5.665E-07
+ Is=22.5466
+ a=0.6796
+ L_Z0=0
+ L_EL=0
+ L_F0=0E6
+ PkZ=781.945241
.ends XGL4018-561_sat

*======================================================================
* SPICE Model generated by Coilcraft
* Coilcraft Part Number : XGL4018-681
* Inductance = 680nH
*======================================================================
* Model Parameters:
*   Valid Frequency Range = 0.1MHz-300MHz
*   Ambient Temperature = 25 degC
*   Inductor Frequency Model
*   Use model for Frequency Domain simulations
*======================================================================
.subckt XGL4018-681_freq port1 port2 PARAMS: Cpar=6.5pF Ind=0.68uH
X1 port1 port2 Model1A PARAMS:
+ R1=5
+ R2=0.0089
+ C= {Cpar}
+ K1=0.000001
+ K2=0.094
+ K3= {Ind}
+ K4=0.000001
+ K5=0.000001
+ L=6.783E-07
+ Is=19.7008
+ a=0.7234
+ L_Z0=0
+ L_EL=0
+ L_F0=0E6
+ PkZ=787.064625
.ends XGL4018-681_freq

*======================================================================
* SPICE Model generated by Coilcraft
* Coilcraft Part Number : XGL4018-681
* Inductance = 680nH
*======================================================================
* Model Parameters:
*   Valid Frequency Range = 0.1MHz-300MHz
*   Ambient Temperature = 25 degC
*   Inductor Saturation Model
*   Use model for Time Domain simulations
*======================================================================
.subckt XGL4018-681_sat port1 port2 PARAMS: Cpar=6.5pF Ind=0.68uH
X1 port1 port2 Model1C PARAMS:
+ R1=5
+ R2=0.0089
+ C= {Cpar}
+ K1=0.000001
+ K2=0.094
+ K3= {Ind}
+ K4=0.000001
+ K5=0.000001
+ L=6.783E-07
+ Is=19.7008
+ a=0.7234
+ L_Z0=0
+ L_EL=0
+ L_F0=0E6
+ PkZ=787.064625
.ends XGL4018-681_sat

*======================================================================
* SPICE Model generated by Coilcraft
* Coilcraft Part Number : XGL4018-821
* Inductance = 820nH
*======================================================================
* Model Parameters:
*   Valid Frequency Range = 0.1MHz-300MHz
*   Ambient Temperature = 25 degC
*   Inductor Frequency Model
*   Use model for Frequency Domain simulations
*======================================================================
.subckt XGL4018-821_freq port1 port2 PARAMS: Cpar=5.6pF Ind=0.82uH
X1 port1 port2 Model1A PARAMS:
+ R1=4
+ R2=0.0116
+ C= {Cpar}
+ K1=0.000001
+ K2=0.12
+ K3= {Ind}
+ K4=0.000001
+ K5=0.000001
+ L=8.237E-07
+ Is=17.0211
+ a=0.7229
+ L_Z0=0
+ L_EL=0
+ L_F0=0E6
+ PkZ=1005.71059
.ends XGL4018-821_freq

*======================================================================
* SPICE Model generated by Coilcraft
* Coilcraft Part Number : XGL4018-821
* Inductance = 820nH
*======================================================================
* Model Parameters:
*   Valid Frequency Range = 0.1MHz-300MHz
*   Ambient Temperature = 25 degC
*   Inductor Saturation Model
*   Use model for Time Domain simulations
*======================================================================
.subckt XGL4018-821_sat port1 port2 PARAMS: Cpar=5.6pF Ind=0.82uH
X1 port1 port2 Model1C PARAMS:
+ R1=4
+ R2=0.0116
+ C= {Cpar}
+ K1=0.000001
+ K2=0.12
+ K3= {Ind}
+ K4=0.000001
+ K5=0.000001
+ L=8.237E-07
+ Is=17.0211
+ a=0.7229
+ L_Z0=0
+ L_EL=0
+ L_F0=0E6
+ PkZ=1005.71059
.ends XGL4018-821_sat

*======================================================================
* SPICE Model generated by Coilcraft
* Coilcraft Part Number : XGL4018-102
* Inductance = 1uH
*======================================================================
* Model Parameters:
*   Valid Frequency Range = 0.1MHz-250MHz
*   Ambient Temperature = 25 degC
*   Inductor Frequency Model
*   Use model for Frequency Domain simulations
*======================================================================
.subckt XGL4018-102_freq port1 port2 PARAMS: Cpar=6.6pF Ind=1uH
X1 port1 port2 Model1A PARAMS:
+ R1=6
+ R2=0.0129
+ C= {Cpar}
+ K1=0.000001
+ K2=0.15
+ K3= {Ind}
+ K4=0.000001
+ K5=0.000001
+ L=9.654E-07
+ Is=15.8711
+ a=0.7437
+ L_Z0=0
+ L_EL=0
+ L_F0=0E6
+ PkZ=1127.86068
.ends XGL4018-102_freq

*======================================================================
* SPICE Model generated by Coilcraft
* Coilcraft Part Number : XGL4018-102
* Inductance = 1uH
*======================================================================
* Model Parameters:
*   Valid Frequency Range = 0.1MHz-250MHz
*   Ambient Temperature = 25 degC
*   Inductor Saturation Model
*   Use model for Time Domain simulations
*======================================================================
.subckt XGL4018-102_sat port1 port2 PARAMS: Cpar=6.6pF Ind=1uH
X1 port1 port2 Model1C PARAMS:
+ R1=6
+ R2=0.0129
+ C= {Cpar}
+ K1=0.000001
+ K2=0.15
+ K3= {Ind}
+ K4=0.000001
+ K5=0.000001
+ L=9.654E-07
+ Is=15.8711
+ a=0.7437
+ L_Z0=0
+ L_EL=0
+ L_F0=0E6
+ PkZ=1127.86068
.ends XGL4018-102_sat

*======================================================================
* SPICE Model generated by Coilcraft
* Coilcraft Part Number : XGL4018-152
* Inductance = 1.5uH
*======================================================================
* Model Parameters:
*   Valid Frequency Range = 0.1MHz-250MHz
*   Ambient Temperature = 25 degC
*   Inductor Frequency Model
*   Use model for Frequency Domain simulations
*======================================================================
.subckt XGL4018-152_freq port1 port2 PARAMS: Cpar=7pF Ind=1.5uH
X1 port1 port2 Model1A PARAMS:
+ R1=7
+ R2=0.0208
+ C= {Cpar}
+ K1=0.000001
+ K2=0.22
+ K3= {Ind}
+ K4=0.000001
+ K5=0.000001
+ L=1.4867E-06
+ Is=13.8766
+ a=0.6817
+ L_Z0=0
+ L_EL=0
+ L_F0=0E6
+ PkZ=1467.86055
.ends XGL4018-152_freq

*======================================================================
* SPICE Model generated by Coilcraft
* Coilcraft Part Number : XGL4018-152
* Inductance = 1.5uH
*======================================================================
* Model Parameters:
*   Valid Frequency Range = 0.1MHz-250MHz
*   Ambient Temperature = 25 degC
*   Inductor Saturation Model
*   Use model for Time Domain simulations
*======================================================================
.subckt XGL4018-152_sat port1 port2 PARAMS: Cpar=7pF Ind=1.5uH
X1 port1 port2 Model1C PARAMS:
+ R1=7
+ R2=0.0208
+ C= {Cpar}
+ K1=0.000001
+ K2=0.22
+ K3= {Ind}
+ K4=0.000001
+ K5=0.000001
+ L=1.4867E-06
+ Is=13.8766
+ a=0.6817
+ L_Z0=0
+ L_EL=0
+ L_F0=0E6
+ PkZ=1467.86055
.ends XGL4018-152_sat

*======================================================================
* SPICE Model generated by Coilcraft
* Coilcraft Part Number : XGL4018-222
* Inductance = 2.2uH
*======================================================================
* Model Parameters:
*   Valid Frequency Range = 0.1MHz-250MHz
*   Ambient Temperature = 25 degC
*   Inductor Frequency Model
*   Use model for Frequency Domain simulations
*======================================================================
.subckt XGL4018-222_freq port1 port2 PARAMS: Cpar=7.4pF Ind=2.2uH
X1 port1 port2 Model1A PARAMS:
+ R1=6
+ R2=0.0311
+ C= {Cpar}
+ K1=0.000001
+ K2=0.34
+ K3= {Ind}
+ K4=0.000001
+ K5=0.000001
+ L=2.2951E-06
+ Is=10.1228
+ a=0.7491
+ L_Z0=0
+ L_EL=0
+ L_F0=0E6
+ PkZ=2047.1103
.ends XGL4018-222_freq

*======================================================================
* SPICE Model generated by Coilcraft
* Coilcraft Part Number : XGL4018-222
* Inductance = 2.2uH
*======================================================================
* Model Parameters:
*   Valid Frequency Range = 0.1MHz-250MHz
*   Ambient Temperature = 25 degC
*   Inductor Saturation Model
*   Use model for Time Domain simulations
*======================================================================
.subckt XGL4018-222_sat port1 port2 PARAMS: Cpar=7.4pF Ind=2.2uH
X1 port1 port2 Model1C PARAMS:
+ R1=6
+ R2=0.0311
+ C= {Cpar}
+ K1=0.000001
+ K2=0.34
+ K3= {Ind}
+ K4=0.000001
+ K5=0.000001
+ L=2.2951E-06
+ Is=10.1228
+ a=0.7491
+ L_Z0=0
+ L_EL=0
+ L_F0=0E6
+ PkZ=2047.1103
.ends XGL4018-222_sat

*======================================================================
* SPICE Model generated by Coilcraft
* Coilcraft Part Number : XGL4018-332
* Inductance = 3.3uH
*======================================================================
* Model Parameters:
*   Valid Frequency Range = 0.1MHz-250MHz
*   Ambient Temperature = 25 degC
*   Inductor Frequency Model
*   Use model for Frequency Domain simulations
*======================================================================
.subckt XGL4018-332_freq port1 port2 PARAMS: Cpar=6.6pF Ind=3.3uH
X1 port1 port2 Model1A PARAMS:
+ R1=5
+ R2=0.0481
+ C= {Cpar}
+ K1=0.000001
+ K2=0.58
+ K3= {Ind}
+ K4=0.000001
+ K5=0.000001
+ L=3.5121E-06
+ Is=8.3336
+ a=0.7123
+ L_Z0=0
+ L_EL=0
+ L_F0=0E6
+ PkZ=3276.03051
.ends XGL4018-332_freq

*======================================================================
* SPICE Model generated by Coilcraft
* Coilcraft Part Number : XGL4018-332
* Inductance = 3.3uH
*======================================================================
* Model Parameters:
*   Valid Frequency Range = 0.1MHz-250MHz
*   Ambient Temperature = 25 degC
*   Inductor Saturation Model
*   Use model for Time Domain simulations
*======================================================================
.subckt XGL4018-332_sat port1 port2 PARAMS: Cpar=6.6pF Ind=3.3uH
X1 port1 port2 Model1C PARAMS:
+ R1=5
+ R2=0.0481
+ C= {Cpar}
+ K1=0.000001
+ K2=0.58
+ K3= {Ind}
+ K4=0.000001
+ K5=0.000001
+ L=3.5121E-06
+ Is=8.3336
+ a=0.7123
+ L_Z0=0
+ L_EL=0
+ L_F0=0E6
+ PkZ=3276.03051
.ends XGL4018-332_sat

*======================================================================
* SPICE Model generated by Coilcraft
* Coilcraft Part Number : XGL4018-472
* Inductance = 4.7uH
*======================================================================
* Model Parameters:
*   Valid Frequency Range = 0.1MHz-250MHz
*   Ambient Temperature = 25 degC
*   Inductor Frequency Model
*   Use model for Frequency Domain simulations
*======================================================================
.subckt XGL4018-472_freq port1 port2 PARAMS: Cpar=7.2pF Ind=4.7uH
X1 port1 port2 Model1A PARAMS:
+ R1=6
+ R2=0.0694
+ C= {Cpar}
+ K1=0.000001
+ K2=0.9
+ K3= {Ind}
+ K4=0.000001
+ K5=0.000001
+ L=4.7899E-06
+ Is=7.2059
+ a=0.6992
+ L_Z0=0
+ L_EL=0
+ L_F0=0E6
+ PkZ=4512.22272
.ends XGL4018-472_freq

*======================================================================
* SPICE Model generated by Coilcraft
* Coilcraft Part Number : XGL4018-472
* Inductance = 4.7uH
*======================================================================
* Model Parameters:
*   Valid Frequency Range = 0.1MHz-250MHz
*   Ambient Temperature = 25 degC
*   Inductor Saturation Model
*   Use model for Time Domain simulations
*======================================================================
.subckt XGL4018-472_sat port1 port2 PARAMS: Cpar=7.2pF Ind=4.7uH
X1 port1 port2 Model1C PARAMS:
+ R1=6
+ R2=0.0694
+ C= {Cpar}
+ K1=0.000001
+ K2=0.9
+ K3= {Ind}
+ K4=0.000001
+ K5=0.000001
+ L=4.7899E-06
+ Is=7.2059
+ a=0.6992
+ L_Z0=0
+ L_EL=0
+ L_F0=0E6
+ PkZ=4512.22272
.ends XGL4018-472_sat

*======================================================================
* SPICE Model generated by Coilcraft
* Coilcraft Saturation Inductor Model
*======================================================================
* Model Parameters:
*   Valid Frequency Range Varies by Inductor
*   Ambient Temperature = 25 degC
*   Current Saturable Inductor Model
*======================================================================
.subckt Model1C Lin Lout PARAMS:
+ R1=1
+ R2=1
+ C=1
+ L=1
+ Is=1
+ a=1
+ PkZ=94.2 * {L} *1e6
R2 Lin N001 {R2}
R3 N001 Lout {PkZ}
C1 N001 N002 {C}
R1 N002 Lout {R1}
L1 N001 Lout flux={L*Is}*pwrs(tanh(pwrs((x/{Is}),{a})),{1/a})
.ends Model1C





*======================================================================
* SPICE Model generated by Coilcraft
* Coilcraft Power Inductor Model
*======================================================================
* Model Parameters:
*   Valid Frequency Range Varies by Inductor
*   Ambient Temperature = 25 degC
*   DC Bias Current = 0 A
*   Frequency Dependent Inductor Model
*======================================================================
.subckt Model1A Lin Lout PARAMS:
+ R1=1
+ R2=1
+ C=1
+ K1=1
+ K2=1
+ K3=1
+ K4=1
+ K5=1
R2 N001 Lin {R2}
R1 Lout N002 {R1}
C1 N002 N001 {C}
G_Rvar2 N001 Lout LAPLACE { V(N001, Lout) } {1/K2/(-S*S/4/PI^2)^0.25}
G_Rvar1 N001 N003 LAPLACE { V(N001, N003) } {1/K1/(-S*S/4/PI^2)^0.25}
G_Lvar N003 Lout  LAPLACE { V(N003, Lout) } {1/(S*1e-6*({K3*1e6}-({K4}*LOG({K5}*(sqrt(-S*S)/(2*pi))))))}
*This large resistance to ground has been added to prevent a floating node error
R3 N003 0 100Meg
.ends Model1A


.subckt Coilcraft_Inductor Lin Lout
R1 Lout Lin 100Meg
.ends Coilcraft_Inductor
