*======================================================================
* SPICE Model generated by Coilcraft
* Coilcraft Part Number : XGL4030-131
* Inductance = 130nH
*======================================================================
* Model Parameters:
*   Valid Frequency Range = 0.1MHz-400MHz
*   Ambient Temperature = 25 degC
*   Inductor Frequency Model
*   Use model for Frequency Domain simulations
*======================================================================
.subckt XGL4030-131_freq port1 port2 PARAMS: Cpar=3.07pF Ind=0.13uH
X1 port1 port2 Model1A PARAMS:
+ R1=11.1
+ R2=0.0015
+ C= {Cpar}
+ K1=0.000001
+ K2=0.0223
+ K3= {Ind}
+ K4=0.000001
+ K5=0.000001
+ L=1.223E-07
+ Is=53.3358
+ a=0.7591
+ L_Z0=0
+ L_EL=0
+ L_F0=0E6
+ PkZ=323.940664
.ends XGL4030-131_freq

*======================================================================
* SPICE Model generated by Coilcraft
* Coilcraft Part Number : XGL4030-131
* Inductance = 130nH
*======================================================================
* Model Parameters:
*   Valid Frequency Range = 0.1MHz-400MHz
*   Ambient Temperature = 25 degC
*   Inductor Saturation Model
*   Use model for Time Domain simulations
*======================================================================
.subckt XGL4030-131_sat port1 port2 PARAMS: Cpar=3.07pF Ind=0.13uH
X1 port1 port2 Model1C PARAMS:
+ R1=11.1
+ R2=0.0015
+ C= {Cpar}
+ K1=0.000001
+ K2=0.0223
+ K3= {Ind}
+ K4=0.000001
+ K5=0.000001
+ L=1.223E-07
+ Is=53.3358
+ a=0.7591
+ L_Z0=0
+ L_EL=0
+ L_F0=0E6
+ PkZ=323.940664
.ends XGL4030-131_sat

*======================================================================
* SPICE Model generated by Coilcraft
* Coilcraft Part Number : XGL4030-271
* Inductance = 270nH
*======================================================================
* Model Parameters:
*   Valid Frequency Range = 0.1MHz-200MHz
*   Ambient Temperature = 25 degC
*   Inductor Frequency Model
*   Use model for Frequency Domain simulations
*======================================================================
.subckt XGL4030-271_freq port1 port2 PARAMS: Cpar=4.15pF Ind=0.27uH
X1 port1 port2 Model1A PARAMS:
+ R1=1
+ R2=0.0022
+ C= {Cpar}
+ K1=0.0000086
+ K2=0.0391
+ K3= {Ind}
+ K4=0.0027
+ K5=0.0000109
+ L=2.379E-07
+ Is=38.1223
+ a=0.7799
+ L_Z0=0
+ L_EL=0
+ L_F0=0E6
+ PkZ=484.395508
.ends XGL4030-271_freq

*======================================================================
* SPICE Model generated by Coilcraft
* Coilcraft Part Number : XGL4030-271
* Inductance = 270nH
*======================================================================
* Model Parameters:
*   Valid Frequency Range = 0.1MHz-200MHz
*   Ambient Temperature = 25 degC
*   Inductor Saturation Model
*   Use model for Time Domain simulations
*======================================================================
.subckt XGL4030-271_sat port1 port2 PARAMS: Cpar=3.843pF Ind=0.27uH
X1 port1 port2 Model1C PARAMS:
+ R1=1
+ R2=0.0022
+ C= {Cpar}
+ K1=0.0000086
+ K2=0.0391
+ K3= {Ind}
+ K4=0.0027
+ K5=0.0000109
+ L=2.379E-07
+ Is=38.1223
+ a=0.7799
+ L_Z0=0
+ L_EL=0
+ L_F0=0E6
+ PkZ=484.395508
.ends XGL4030-271_sat

*======================================================================
* SPICE Model generated by Coilcraft
* Coilcraft Part Number : XGL4030-301
* Inductance = 300nH
*======================================================================
* Model Parameters:
*   Valid Frequency Range = 0.1MHz-200MHz
*   Ambient Temperature = 25 degC
*   Inductor Frequency Model
*   Use model for Frequency Domain simulations
*======================================================================
.subckt XGL4030-301_freq port1 port2 PARAMS: Cpar=6.01pF Ind=0.3uH
X1 port1 port2 Model1A PARAMS:
+ R1=4
+ R2=0.0025
+ C= {Cpar}
+ K1=0.0000493
+ K2=0.0451
+ K3= {Ind}
+ K4=0.000001
+ K5=0.000001
+ L=2.667E-07
+ Is=33.9516
+ a=0.772
+ L_Z0=0
+ L_EL=0
+ L_F0=0E6
+ PkZ=470.041096
.ends XGL4030-301_freq

*======================================================================
* SPICE Model generated by Coilcraft
* Coilcraft Part Number : XGL4030-301
* Inductance = 300nH
*======================================================================
* Model Parameters:
*   Valid Frequency Range = 0.1MHz-200MHz
*   Ambient Temperature = 25 degC
*   Inductor Saturation Model
*   Use model for Time Domain simulations
*======================================================================
.subckt XGL4030-301_sat port1 port2 PARAMS: Cpar=6.01pF Ind=0.3uH
X1 port1 port2 Model1C PARAMS:
+ R1=4
+ R2=0.0025
+ C= {Cpar}
+ K1=0.0000493
+ K2=0.0451
+ K3= {Ind}
+ K4=0.000001
+ K5=0.000001
+ L=2.667E-07
+ Is=33.9516
+ a=0.772
+ L_Z0=0
+ L_EL=0
+ L_F0=0E6
+ PkZ=470.041096
.ends XGL4030-301_sat

*======================================================================
* SPICE Model generated by Coilcraft
* Coilcraft Part Number : XGL4030-401
* Inductance = 400nH
*======================================================================
* Model Parameters:
*   Valid Frequency Range = 0.1MHz-200MHz
*   Ambient Temperature = 25 degC
*   Inductor Frequency Model
*   Use model for Frequency Domain simulations
*======================================================================
.subckt XGL4030-401_freq port1 port2 PARAMS: Cpar=4.9pF Ind=0.4uH
X1 port1 port2 Model1A PARAMS:
+ R1=3
+ R2=0.0028
+ C= {Cpar}
+ K1=0.000001
+ K2=0.0625
+ K3= {Ind}
+ K4=0.0025
+ K5=0.00003
+ L=3.638E-07
+ Is=31.8824
+ a=0.7727
+ L_Z0=0
+ L_EL=0
+ L_F0=0E6
+ PkZ=657.88171
.ends XGL4030-401_freq

*======================================================================
* SPICE Model generated by Coilcraft
* Coilcraft Part Number : XGL4030-401
* Inductance = 400nH
*======================================================================
* Model Parameters:
*   Valid Frequency Range = 0.1MHz-200MHz
*   Ambient Temperature = 25 degC
*   Inductor Saturation Model
*   Use model for Time Domain simulations
*======================================================================
.subckt XGL4030-401_sat port1 port2 PARAMS: Cpar=4.651pF Ind=0.4uH
X1 port1 port2 Model1C PARAMS:
+ R1=3
+ R2=0.0028
+ C= {Cpar}
+ K1=0.000001
+ K2=0.0625
+ K3= {Ind}
+ K4=0.0025
+ K5=0.00003
+ L=3.638E-07
+ Is=31.8824
+ a=0.7727
+ L_Z0=0
+ L_EL=0
+ L_F0=0E6
+ PkZ=657.88171
.ends XGL4030-401_sat

*======================================================================
* SPICE Model generated by Coilcraft
* Coilcraft Part Number : XGL4030-471
* Inductance = 470nH
*======================================================================
* Model Parameters:
*   Valid Frequency Range = 0.1MHz-200MHz
*   Ambient Temperature = 25 degC
*   Inductor Frequency Model
*   Use model for Frequency Domain simulations
*======================================================================
.subckt XGL4030-471_freq port1 port2 PARAMS: Cpar=6.5pF Ind=0.47uH
X1 port1 port2 Model1A PARAMS:
+ R1=4.2
+ R2=0.0034
+ C= {Cpar}
+ K1=0.000001
+ K2=0.069
+ K3= {Ind}
+ K4=0.0025
+ K5=0.00003
+ L=4.287E-07
+ Is=27.292
+ a=0.8058
+ L_Z0=0
+ L_EL=0
+ L_F0=0E6
+ PkZ=639.676697
.ends XGL4030-471_freq

*======================================================================
* SPICE Model generated by Coilcraft
* Coilcraft Part Number : XGL4030-471
* Inductance = 470nH
*======================================================================
* Model Parameters:
*   Valid Frequency Range = 0.1MHz-200MHz
*   Ambient Temperature = 25 degC
*   Inductor Saturation Model
*   Use model for Time Domain simulations
*======================================================================
.subckt XGL4030-471_sat port1 port2 PARAMS: Cpar=6.226pF Ind=0.47uH
X1 port1 port2 Model1C PARAMS:
+ R1=4.2
+ R2=0.0034
+ C= {Cpar}
+ K1=0.000001
+ K2=0.069
+ K3= {Ind}
+ K4=0.0025
+ K5=0.00003
+ L=4.287E-07
+ Is=27.292
+ a=0.8058
+ L_Z0=0
+ L_EL=0
+ L_F0=0E6
+ PkZ=639.676697
.ends XGL4030-471_sat

*======================================================================
* SPICE Model generated by Coilcraft
* Coilcraft Part Number : XGL4030-621
* Inductance = 620nH
*======================================================================
* Model Parameters:
*   Valid Frequency Range = 0.1MHz-200MHz
*   Ambient Temperature = 25 degC
*   Inductor Frequency Model
*   Use model for Frequency Domain simulations
*======================================================================
.subckt XGL4030-621_freq port1 port2 PARAMS: Cpar=6.86pF Ind=0.62uH
X1 port1 port2 Model1A PARAMS:
+ R1=3
+ R2=0.0041
+ C= {Cpar}
+ K1=0.000001
+ K2=0.097
+ K3= {Ind}
+ K4=0.000001
+ K5=0.000001
+ L=5.944E-07
+ Is=24.6071
+ a=0.7994
+ L_Z0=0
+ L_EL=0
+ L_F0=0E6
+ PkZ=828.625581
.ends XGL4030-621_freq

*======================================================================
* SPICE Model generated by Coilcraft
* Coilcraft Part Number : XGL4030-621
* Inductance = 620nH
*======================================================================
* Model Parameters:
*   Valid Frequency Range = 0.1MHz-200MHz
*   Ambient Temperature = 25 degC
*   Inductor Saturation Model
*   Use model for Time Domain simulations
*======================================================================
.subckt XGL4030-621_sat port1 port2 PARAMS: Cpar=6.86pF Ind=0.62uH
X1 port1 port2 Model1C PARAMS:
+ R1=3
+ R2=0.0041
+ C= {Cpar}
+ K1=0.000001
+ K2=0.097
+ K3= {Ind}
+ K4=0.000001
+ K5=0.000001
+ L=5.944E-07
+ Is=24.6071
+ a=0.7994
+ L_Z0=0
+ L_EL=0
+ L_F0=0E6
+ PkZ=828.625581
.ends XGL4030-621_sat

*======================================================================
* SPICE Model generated by Coilcraft
* Coilcraft Part Number : XGL4030-761
* Inductance = 760nH
*======================================================================
* Model Parameters:
*   Valid Frequency Range = 0.1MHz-200MHz
*   Ambient Temperature = 25 degC
*   Inductor Frequency Model
*   Use model for Frequency Domain simulations
*======================================================================
.subckt XGL4030-761_freq port1 port2 PARAMS: Cpar=7.1pF Ind=0.76uH
X1 port1 port2 Model1A PARAMS:
+ R1=4
+ R2=0.0049
+ C= {Cpar}
+ K1=0.00004
+ K2=0.13
+ K3= {Ind}
+ K4=0.000001
+ K5=0.000001
+ L=7.49E-07
+ Is=23.3321
+ a=0.7799
+ L_Z0=0
+ L_EL=0
+ L_F0=0E6
+ PkZ=1031.17356
.ends XGL4030-761_freq

*======================================================================
* SPICE Model generated by Coilcraft
* Coilcraft Part Number : XGL4030-761
* Inductance = 760nH
*======================================================================
* Model Parameters:
*   Valid Frequency Range = 0.1MHz-200MHz
*   Ambient Temperature = 25 degC
*   Inductor Saturation Model
*   Use model for Time Domain simulations
*======================================================================
.subckt XGL4030-761_sat port1 port2 PARAMS: Cpar=7.1pF Ind=0.76uH
X1 port1 port2 Model1C PARAMS:
+ R1=4
+ R2=0.0049
+ C= {Cpar}
+ K1=0.00004
+ K2=0.13
+ K3= {Ind}
+ K4=0.000001
+ K5=0.000001
+ L=7.49E-07
+ Is=23.3321
+ a=0.7799
+ L_Z0=0
+ L_EL=0
+ L_F0=0E6
+ PkZ=1031.17356
.ends XGL4030-761_sat

*======================================================================
* SPICE Model generated by Coilcraft
* Coilcraft Part Number : XGL4030-102
* Inductance = 1uH
*======================================================================
* Model Parameters:
*   Valid Frequency Range = 0.1MHz-200MHz
*   Ambient Temperature = 25 degC
*   Inductor Frequency Model
*   Use model for Frequency Domain simulations
*======================================================================
.subckt XGL4030-102_freq port1 port2 PARAMS: Cpar=6.6pF Ind=1uH
X1 port1 port2 Model1A PARAMS:
+ R1=8
+ R2=0.0065
+ C= {Cpar}
+ K1=0.000001
+ K2=0.175
+ K3= {Ind}
+ K4=0.000001
+ K5=0.000001
+ L=9.951E-07
+ Is=20.8049
+ a=0.7628
+ L_Z0=0
+ L_EL=0
+ L_F0=0E6
+ PkZ=1283.98051
.ends XGL4030-102_freq

*======================================================================
* SPICE Model generated by Coilcraft
* Coilcraft Part Number : XGL4030-102
* Inductance = 1uH
*======================================================================
* Model Parameters:
*   Valid Frequency Range = 0.1MHz-200MHz
*   Ambient Temperature = 25 degC
*   Inductor Saturation Model
*   Use model for Time Domain simulations
*======================================================================
.subckt XGL4030-102_sat port1 port2 PARAMS: Cpar=6.6pF Ind=1uH
X1 port1 port2 Model1C PARAMS:
+ R1=8
+ R2=0.0065
+ C= {Cpar}
+ K1=0.000001
+ K2=0.175
+ K3= {Ind}
+ K4=0.000001
+ K5=0.000001
+ L=9.951E-07
+ Is=20.8049
+ a=0.7628
+ L_Z0=0
+ L_EL=0
+ L_F0=0E6
+ PkZ=1283.98051
.ends XGL4030-102_sat

*======================================================================
* SPICE Model generated by Coilcraft
* Coilcraft Part Number : XGL4030-122
* Inductance = 1.2uH
*======================================================================
* Model Parameters:
*   Valid Frequency Range = 0.1MHz-200MHz
*   Ambient Temperature = 25 degC
*   Inductor Frequency Model
*   Use model for Frequency Domain simulations
*======================================================================
.subckt XGL4030-122_freq port1 port2 PARAMS: Cpar=6.6pF Ind=1.2uH
X1 port1 port2 Model1A PARAMS:
+ R1=5.5
+ R2=0.0085
+ C= {Cpar}
+ K1=0.000001
+ K2=0.21
+ K3= {Ind}
+ K4=0.000001
+ K5=0.000001
+ L=1.2203E-06
+ Is=19.231
+ a=0.7386
+ L_Z0=0
+ L_EL=0
+ L_F0=0E6
+ PkZ=1507.16275
.ends XGL4030-122_freq

*======================================================================
* SPICE Model generated by Coilcraft
* Coilcraft Part Number : XGL4030-122
* Inductance = 1.2uH
*======================================================================
* Model Parameters:
*   Valid Frequency Range = 0.1MHz-200MHz
*   Ambient Temperature = 25 degC
*   Inductor Saturation Model
*   Use model for Time Domain simulations
*======================================================================
.subckt XGL4030-122_sat port1 port2 PARAMS: Cpar=6.6pF Ind=1.2uH
X1 port1 port2 Model1C PARAMS:
+ R1=5.5
+ R2=0.0085
+ C= {Cpar}
+ K1=0.000001
+ K2=0.21
+ K3= {Ind}
+ K4=0.000001
+ K5=0.000001
+ L=1.2203E-06
+ Is=19.231
+ a=0.7386
+ L_Z0=0
+ L_EL=0
+ L_F0=0E6
+ PkZ=1507.16275
.ends XGL4030-122_sat

*======================================================================
* SPICE Model generated by Coilcraft
* Coilcraft Part Number : XGL4030-152
* Inductance = 1.5uH
*======================================================================
* Model Parameters:
*   Valid Frequency Range = 0.1MHz-150MHz
*   Ambient Temperature = 25 degC
*   Inductor Frequency Model
*   Use model for Frequency Domain simulations
*======================================================================
.subckt XGL4030-152_freq port1 port2 PARAMS: Cpar=6.4pF Ind=1.5uH
X1 port1 port2 Model1A PARAMS:
+ R1=7
+ R2=0.0095
+ C= {Cpar}
+ K1=0.000001
+ K2=0.265
+ K3= {Ind}
+ K4=0.000001
+ K5=0.000001
+ L=1.4064E-06
+ Is=18.8362
+ a=0.7145
+ L_Z0=0
+ L_EL=0
+ L_F0=0E6
+ PkZ=1797.2542
.ends XGL4030-152_freq

*======================================================================
* SPICE Model generated by Coilcraft
* Coilcraft Part Number : XGL4030-152
* Inductance = 1.5uH
*======================================================================
* Model Parameters:
*   Valid Frequency Range = 0.1MHz-150MHz
*   Ambient Temperature = 25 degC
*   Inductor Saturation Model
*   Use model for Time Domain simulations
*======================================================================
.subckt XGL4030-152_sat port1 port2 PARAMS: Cpar=6.4pF Ind=1.5uH
X1 port1 port2 Model1C PARAMS:
+ R1=7
+ R2=0.0095
+ C= {Cpar}
+ K1=0.000001
+ K2=0.265
+ K3= {Ind}
+ K4=0.000001
+ K5=0.000001
+ L=1.4064E-06
+ Is=18.8362
+ a=0.7145
+ L_Z0=0
+ L_EL=0
+ L_F0=0E6
+ PkZ=1797.2542
.ends XGL4030-152_sat

*======================================================================
* SPICE Model generated by Coilcraft
* Coilcraft Part Number : XGL4030-222
* Inductance = 2.2uH
*======================================================================
* Model Parameters:
*   Valid Frequency Range = 0.1MHz-150MHz
*   Ambient Temperature = 25 degC
*   Inductor Frequency Model
*   Use model for Frequency Domain simulations
*======================================================================
.subckt XGL4030-222_freq port1 port2 PARAMS: Cpar=6.85pF Ind=2.2uH
X1 port1 port2 Model1A PARAMS:
+ R1=7.5
+ R2=0.0135
+ C= {Cpar}
+ K1=0.000001
+ K2=0.37
+ K3= {Ind}
+ K4=0.000001
+ K5=0.000001
+ L=2.0819E-06
+ Is=15.3301
+ a=0.7015
+ L_Z0=0
+ L_EL=0
+ L_F0=0E6
+ PkZ=2244.83747
.ends XGL4030-222_freq

*======================================================================
* SPICE Model generated by Coilcraft
* Coilcraft Part Number : XGL4030-222
* Inductance = 2.2uH
*======================================================================
* Model Parameters:
*   Valid Frequency Range = 0.1MHz-150MHz
*   Ambient Temperature = 25 degC
*   Inductor Saturation Model
*   Use model for Time Domain simulations
*======================================================================
.subckt XGL4030-222_sat port1 port2 PARAMS: Cpar=6.85pF Ind=2.2uH
X1 port1 port2 Model1C PARAMS:
+ R1=7.5
+ R2=0.0135
+ C= {Cpar}
+ K1=0.000001
+ K2=0.37
+ K3= {Ind}
+ K4=0.000001
+ K5=0.000001
+ L=2.0819E-06
+ Is=15.3301
+ a=0.7015
+ L_Z0=0
+ L_EL=0
+ L_F0=0E6
+ PkZ=2244.83747
.ends XGL4030-222_sat

*======================================================================
* SPICE Model generated by Coilcraft
* Coilcraft Part Number : XGL4030-332
* Inductance = 3.3uH
*======================================================================
* Model Parameters:
*   Valid Frequency Range = 0.1MHz-150MHz
*   Ambient Temperature = 25 degC
*   Inductor Frequency Model
*   Use model for Frequency Domain simulations
*======================================================================
.subckt XGL4030-332_freq port1 port2 PARAMS: Cpar=7.25pF Ind=3.3uH
X1 port1 port2 Model1A PARAMS:
+ R1=7.9
+ R2=0.0199
+ C= {Cpar}
+ K1=0.000001
+ K2=0.55
+ K3= {Ind}
+ K4=0.000001
+ K5=0.000001
+ L=3.2116E-06
+ Is=10.6438
+ a=0.7435
+ L_Z0=0
+ L_EL=0
+ L_F0=0E6
+ PkZ=2975.24611
.ends XGL4030-332_freq

*======================================================================
* SPICE Model generated by Coilcraft
* Coilcraft Part Number : XGL4030-332
* Inductance = 3.3uH
*======================================================================
* Model Parameters:
*   Valid Frequency Range = 0.1MHz-150MHz
*   Ambient Temperature = 25 degC
*   Inductor Saturation Model
*   Use model for Time Domain simulations
*======================================================================
.subckt XGL4030-332_sat port1 port2 PARAMS: Cpar=7.25pF Ind=3.3uH
X1 port1 port2 Model1C PARAMS:
+ R1=7.9
+ R2=0.0199
+ C= {Cpar}
+ K1=0.000001
+ K2=0.55
+ K3= {Ind}
+ K4=0.000001
+ K5=0.000001
+ L=3.2116E-06
+ Is=10.6438
+ a=0.7435
+ L_Z0=0
+ L_EL=0
+ L_F0=0E6
+ PkZ=2975.24611
.ends XGL4030-332_sat

*======================================================================
* SPICE Model generated by Coilcraft
* Coilcraft Part Number : XGL4030-472
* Inductance = 4.7uH
*======================================================================
* Model Parameters:
*   Valid Frequency Range = 0.1MHz-100MHz
*   Ambient Temperature = 25 degC
*   Inductor Frequency Model
*   Use model for Frequency Domain simulations
*======================================================================
.subckt XGL4030-472_freq port1 port2 PARAMS: Cpar=7.5pF Ind=4.7uH
X1 port1 port2 Model1A PARAMS:
+ R1=7.8
+ R2=0.0285
+ C= {Cpar}
+ K1=0.000001
+ K2=0.93
+ K3= {Ind}
+ K4=0.000001
+ K5=0.000001
+ L=4.6915E-06
+ Is=9.0563
+ a=0.731
+ L_Z0=0
+ L_EL=0
+ L_F0=0E6
+ PkZ=4542.69821
.ends XGL4030-472_freq

*======================================================================
* SPICE Model generated by Coilcraft
* Coilcraft Part Number : XGL4030-472
* Inductance = 4.7uH
*======================================================================
* Model Parameters:
*   Valid Frequency Range = 0.1MHz-100MHz
*   Ambient Temperature = 25 degC
*   Inductor Saturation Model
*   Use model for Time Domain simulations
*======================================================================
.subckt XGL4030-472_sat port1 port2 PARAMS: Cpar=7.5pF Ind=4.7uH
X1 port1 port2 Model1C PARAMS:
+ R1=7.8
+ R2=0.0285
+ C= {Cpar}
+ K1=0.000001
+ K2=0.93
+ K3= {Ind}
+ K4=0.000001
+ K5=0.000001
+ L=4.6915E-06
+ Is=9.0563
+ a=0.731
+ L_Z0=0
+ L_EL=0
+ L_F0=0E6
+ PkZ=4542.69821
.ends XGL4030-472_sat

*======================================================================
* SPICE Model generated by Coilcraft
* Coilcraft Part Number : XGL4030-562
* Inductance = 5.6uH
*======================================================================
* Model Parameters:
*   Valid Frequency Range = 0.1MHz-100MHz
*   Ambient Temperature = 25 degC
*   Inductor Frequency Model
*   Use model for Frequency Domain simulations
*======================================================================
.subckt XGL4030-562_freq port1 port2 PARAMS: Cpar=7pF Ind=5.6uH
X1 port1 port2 Model1A PARAMS:
+ R1=9
+ R2=0.0315
+ C= {Cpar}
+ K1=0.000001
+ K2=1
+ K3= {Ind}
+ K4=0.000001
+ K5=0.000001
+ L=5.0427E-06
+ Is=9.2095
+ a=0.7341
+ L_Z0=0
+ L_EL=0
+ L_F0=0E6
+ PkZ=4771.1219
.ends XGL4030-562_freq

*======================================================================
* SPICE Model generated by Coilcraft
* Coilcraft Part Number : XGL4030-562
* Inductance = 5.6uH
*======================================================================
* Model Parameters:
*   Valid Frequency Range = 0.1MHz-100MHz
*   Ambient Temperature = 25 degC
*   Inductor Saturation Model
*   Use model for Time Domain simulations
*======================================================================
.subckt XGL4030-562_sat port1 port2 PARAMS: Cpar=7pF Ind=5.6uH
X1 port1 port2 Model1C PARAMS:
+ R1=9
+ R2=0.0315
+ C= {Cpar}
+ K1=0.000001
+ K2=1
+ K3= {Ind}
+ K4=0.000001
+ K5=0.000001
+ L=5.0427E-06
+ Is=9.2095
+ a=0.7341
+ L_Z0=0
+ L_EL=0
+ L_F0=0E6
+ PkZ=4771.1219
.ends XGL4030-562_sat

*======================================================================
* SPICE Model generated by Coilcraft
* Coilcraft Part Number : XGL4030-682
* Inductance = 6.8uH
*======================================================================
* Model Parameters:
*   Valid Frequency Range = 0.1MHz-75MHz
*   Ambient Temperature = 25 degC
*   Inductor Frequency Model
*   Use model for Frequency Domain simulations
*======================================================================
.subckt XGL4030-682_freq port1 port2 PARAMS: Cpar=8.2pF Ind=6.8uH
X1 port1 port2 Model1A PARAMS:
+ R1=14.5
+ R2=0.0435
+ C= {Cpar}
+ K1=0.000001
+ K2=1.22
+ K3= {Ind}
+ K4=0.000001
+ K5=0.000001
+ L=6.5766E-06
+ Is=7.2762
+ a=0.7554
+ L_Z0=0
+ L_EL=0
+ L_F0=0E6
+ PkZ=5127.39208
.ends XGL4030-682_freq

*======================================================================
* SPICE Model generated by Coilcraft
* Coilcraft Part Number : XGL4030-682
* Inductance = 6.8uH
*======================================================================
* Model Parameters:
*   Valid Frequency Range = 0.1MHz-75MHz
*   Ambient Temperature = 25 degC
*   Inductor Saturation Model
*   Use model for Time Domain simulations
*======================================================================
.subckt XGL4030-682_sat port1 port2 PARAMS: Cpar=8.2pF Ind=6.8uH
X1 port1 port2 Model1C PARAMS:
+ R1=14.5
+ R2=0.0435
+ C= {Cpar}
+ K1=0.000001
+ K2=1.22
+ K3= {Ind}
+ K4=0.000001
+ K5=0.000001
+ L=6.5766E-06
+ Is=7.2762
+ a=0.7554
+ L_Z0=0
+ L_EL=0
+ L_F0=0E6
+ PkZ=5127.39208
.ends XGL4030-682_sat

*======================================================================
* SPICE Model generated by Coilcraft
* Coilcraft Part Number : XGL4030-822
* Inductance = 8.2uH
*======================================================================
* Model Parameters:
*   Valid Frequency Range = 0.1MHz-75MHz
*   Ambient Temperature = 25 degC
*   Inductor Frequency Model
*   Use model for Frequency Domain simulations
*======================================================================
.subckt XGL4030-822_freq port1 port2 PARAMS: Cpar=7.12pF Ind=8.2uH
X1 port1 port2 Model1A PARAMS:
+ R1=11
+ R2=0.0506
+ C= {Cpar}
+ K1=0.000001
+ K2=1.7
+ K3= {Ind}
+ K4=0.035
+ K5=0.000001
+ L=7.5898E-06
+ Is=7.4892
+ a=0.7174
+ L_Z0=0
+ L_EL=0
+ L_F0=0E6
+ PkZ=7238.63127
.ends XGL4030-822_freq

*======================================================================
* SPICE Model generated by Coilcraft
* Coilcraft Part Number : XGL4030-822
* Inductance = 8.2uH
*======================================================================
* Model Parameters:
*   Valid Frequency Range = 0.1MHz-75MHz
*   Ambient Temperature = 25 degC
*   Inductor Saturation Model
*   Use model for Time Domain simulations
*======================================================================
.subckt XGL4030-822_sat port1 port2 PARAMS: Cpar=7.028pF Ind=8.2uH
X1 port1 port2 Model1C PARAMS:
+ R1=11
+ R2=0.0506
+ C= {Cpar}
+ K1=0.000001
+ K2=1.7
+ K3= {Ind}
+ K4=0.035
+ K5=0.000001
+ L=7.5898E-06
+ Is=7.4892
+ a=0.7174
+ L_Z0=0
+ L_EL=0
+ L_F0=0E6
+ PkZ=7238.63127
.ends XGL4030-822_sat

*======================================================================
* SPICE Model generated by Coilcraft
* Coilcraft Part Number : XGL4030-103
* Inductance = 10uH
*======================================================================
* Model Parameters:
*   Valid Frequency Range = 0.1MHz-50MHz
*   Ambient Temperature = 25 degC
*   Inductor Frequency Model
*   Use model for Frequency Domain simulations
*======================================================================
.subckt XGL4030-103_freq port1 port2 PARAMS: Cpar=8.2pF Ind=10uH
X1 port1 port2 Model1A PARAMS:
+ R1=13
+ R2=0.063
+ C= {Cpar}
+ K1=0.000001
+ K2=2.2
+ K3= {Ind}
+ K4=0.065
+ K5=0.000001
+ L=9.5035E-06
+ Is=6.6297
+ a=0.7132
+ L_Z0=0
+ L_EL=0
+ L_F0=0E6
+ PkZ=8419.07825
.ends XGL4030-103_freq

*======================================================================
* SPICE Model generated by Coilcraft
* Coilcraft Part Number : XGL4030-103
* Inductance = 10uH
*======================================================================
* Model Parameters:
*   Valid Frequency Range = 0.1MHz-50MHz
*   Ambient Temperature = 25 degC
*   Inductor Saturation Model
*   Use model for Time Domain simulations
*======================================================================
.subckt XGL4030-103_sat port1 port2 PARAMS: Cpar=8.047pF Ind=10uH
X1 port1 port2 Model1C PARAMS:
+ R1=13
+ R2=0.063
+ C= {Cpar}
+ K1=0.000001
+ K2=2.2
+ K3= {Ind}
+ K4=0.065
+ K5=0.000001
+ L=9.5035E-06
+ Is=6.6297
+ a=0.7132
+ L_Z0=0
+ L_EL=0
+ L_F0=0E6
+ PkZ=8419.07825
.ends XGL4030-103_sat

*======================================================================
* SPICE Model generated by Coilcraft
* Coilcraft Part Number : XGL4030-123
* Inductance = 12uH
*======================================================================
* Model Parameters:
*   Valid Frequency Range = 0.1MHz-50MHz
*   Ambient Temperature = 25 degC
*   Inductor Frequency Model
*   Use model for Frequency Domain simulations
*======================================================================
.subckt XGL4030-123_freq port1 port2 PARAMS: Cpar=7.89pF Ind=12uH
X1 port1 port2 Model1A PARAMS:
+ R1=23
+ R2=0.0785
+ C= {Cpar}
+ K1=0.000001
+ K2=2.69
+ K3= {Ind}
+ K4=0.0949
+ K5=0.000001
+ L=1.1872E-05
+ Is=5.1808
+ a=0.7895
+ L_Z0=0
+ L_EL=0
+ L_F0=0E6
+ PkZ=9357.38566
.ends XGL4030-123_freq

*======================================================================
* SPICE Model generated by Coilcraft
* Coilcraft Part Number : XGL4030-123
* Inductance = 12uH
*======================================================================
* Model Parameters:
*   Valid Frequency Range = 0.1MHz-50MHz
*   Ambient Temperature = 25 degC
*   Inductor Saturation Model
*   Use model for Time Domain simulations
*======================================================================
.subckt XGL4030-123_sat port1 port2 PARAMS: Cpar=7.716pF Ind=12uH
X1 port1 port2 Model1C PARAMS:
+ R1=23
+ R2=0.0785
+ C= {Cpar}
+ K1=0.000001
+ K2=2.69
+ K3= {Ind}
+ K4=0.0949
+ K5=0.000001
+ L=1.1872E-05
+ Is=5.1808
+ a=0.7895
+ L_Z0=0
+ L_EL=0
+ L_F0=0E6
+ PkZ=9357.38566
.ends XGL4030-123_sat

*======================================================================
* SPICE Model generated by Coilcraft
* Coilcraft Saturation Inductor Model
*======================================================================
* Model Parameters:
*   Valid Frequency Range Varies by Inductor
*   Ambient Temperature = 25 degC
*   Current Saturable Inductor Model
*======================================================================
.subckt Model1C Lin Lout PARAMS:
+ R1=1
+ R2=1
+ C=1
+ L=1
+ Is=1
+ a=1
+ PkZ=94.2 * {L} *1e6
R2 Lin N001 {R2}
R3 N001 Lout {PkZ}
C1 N001 N002 {C}
R1 N002 Lout {R1}
L1 N001 Lout flux={L*Is}*pwrs(tanh(pwrs((x/{Is}),{a})),{1/a})
.ends Model1C





*======================================================================