*======================================================================
* SPICE Model generated by Coilcraft
* Coilcraft Part Number : XGL4040-151
* Inductance = 150nH
*======================================================================
* Model Parameters:
*   Valid Frequency Range = 0.1MHz-400MHz
*   Ambient Temperature = 25 degC
*   Inductor Frequency Model
*   Use model for Frequency Domain simulations
*======================================================================
.subckt XGL4040-151_freq port1 port2 PARAMS: Cpar=4.5pF Ind=0.15uH
X1 port1 port2 Model1A PARAMS:
+ R1=6
+ R2=0.0018
+ C= {Cpar}
+ K1=0.000001
+ K2=0.022
+ K3= {Ind}
+ K4=0.000001
+ K5=0.000001
+ L=1.528E-07
+ Is=39.1919
+ a=0.8232
+ L_Z0=0
+ L_EL=0
+ L_F0=0E6
+ PkZ=290.190527
.ends XGL4040-151_freq

*======================================================================
* SPICE Model generated by Coilcraft
* Coilcraft Part Number : XGL4040-151
* Inductance = 150nH
*======================================================================
* Model Parameters:
*   Valid Frequency Range = 0.1MHz-400MHz
*   Ambient Temperature = 25 degC
*   Inductor Saturation Model
*   Use model for Time Domain simulations
*======================================================================
.subckt XGL4040-151_sat port1 port2 PARAMS: Cpar=4.5pF Ind=0.15uH
X1 port1 port2 Model1C PARAMS:
+ R1=6
+ R2=0.0018
+ C= {Cpar}
+ K1=0.000001
+ K2=0.022
+ K3= {Ind}
+ K4=0.000001
+ K5=0.000001
+ L=1.528E-07
+ Is=39.1919
+ a=0.8232
+ L_Z0=0
+ L_EL=0
+ L_F0=0E6
+ PkZ=290.190527
.ends XGL4040-151_sat

*======================================================================
* SPICE Model generated by Coilcraft
* Coilcraft Part Number : XGL4040-301
* Inductance = 300nH
*======================================================================
* Model Parameters:
*   Valid Frequency Range = 0.1MHz-400MHz
*   Ambient Temperature = 25 degC
*   Inductor Frequency Model
*   Use model for Frequency Domain simulations
*======================================================================
.subckt XGL4040-301_freq port1 port2 PARAMS: Cpar=5.2pF Ind=0.3uH
X1 port1 port2 Model1A PARAMS:
+ R1=7
+ R2=0.0026
+ C= {Cpar}
+ K1=0.000001
+ K2=0.039
+ K3= {Ind}
+ K4=0.000001
+ K5=0.000001
+ L=2.89E-07
+ Is=30.5948
+ a=0.7663
+ L_Z0=0
+ L_EL=0
+ L_F0=0E6
+ PkZ=417.907543
.ends XGL4040-301_freq

*======================================================================
* SPICE Model generated by Coilcraft
* Coilcraft Part Number : XGL4040-301
* Inductance = 300nH
*======================================================================
* Model Parameters:
*   Valid Frequency Range = 0.1MHz-400MHz
*   Ambient Temperature = 25 degC
*   Inductor Saturation Model
*   Use model for Time Domain simulations
*======================================================================
.subckt XGL4040-301_sat port1 port2 PARAMS: Cpar=5.2pF Ind=0.3uH
X1 port1 port2 Model1C PARAMS:
+ R1=7
+ R2=0.0026
+ C= {Cpar}
+ K1=0.000001
+ K2=0.039
+ K3= {Ind}
+ K4=0.000001
+ K5=0.000001
+ L=2.89E-07
+ Is=30.5948
+ a=0.7663
+ L_Z0=0
+ L_EL=0
+ L_F0=0E6
+ PkZ=417.907543
.ends XGL4040-301_sat

*======================================================================
* SPICE Model generated by Coilcraft
* Coilcraft Part Number : XGL4040-471
* Inductance = 470nH
*======================================================================
* Model Parameters:
*   Valid Frequency Range = 0.1MHz-300MHz
*   Ambient Temperature = 25 degC
*   Inductor Frequency Model
*   Use model for Frequency Domain simulations
*======================================================================
.subckt XGL4040-471_freq port1 port2 PARAMS: Cpar=6pF Ind=0.47uH
X1 port1 port2 Model1A PARAMS:
+ R1=5
+ R2=0.0032
+ C= {Cpar}
+ K1=0.000001
+ K2=0.062
+ K3= {Ind}
+ K4=0.000001
+ K5=0.000001
+ L=4.368E-07
+ Is=22.2854
+ a=0.8518
+ L_Z0=0
+ L_EL=0
+ L_F0=0E6
+ PkZ=581.163989
.ends XGL4040-471_freq

*======================================================================
* SPICE Model generated by Coilcraft
* Coilcraft Part Number : XGL4040-471
* Inductance = 470nH
*======================================================================
* Model Parameters:
*   Valid Frequency Range = 0.1MHz-300MHz
*   Ambient Temperature = 25 degC
*   Inductor Saturation Model
*   Use model for Time Domain simulations
*======================================================================
.subckt XGL4040-471_sat port1 port2 PARAMS: Cpar=6pF Ind=0.47uH
X1 port1 port2 Model1C PARAMS:
+ R1=5
+ R2=0.0032
+ C= {Cpar}
+ K1=0.000001
+ K2=0.062
+ K3= {Ind}
+ K4=0.000001
+ K5=0.000001
+ L=4.368E-07
+ Is=22.2854
+ a=0.8518
+ L_Z0=0
+ L_EL=0
+ L_F0=0E6
+ PkZ=581.163989
.ends XGL4040-471_sat

*======================================================================
* SPICE Model generated by Coilcraft
* Coilcraft Part Number : XGL4040-681
* Inductance = 680nH
*======================================================================
* Model Parameters:
*   Valid Frequency Range = 0.1MHz-300MHz
*   Ambient Temperature = 25 degC
*   Inductor Frequency Model
*   Use model for Frequency Domain simulations
*======================================================================
.subckt XGL4040-681_freq port1 port2 PARAMS: Cpar=6.6pF Ind=0.68uH
X1 port1 port2 Model1A PARAMS:
+ R1=5
+ R2=0.004
+ C= {Cpar}
+ K1=0.000001
+ K2=0.088
+ K3= {Ind}
+ K4=0.000001
+ K5=0.000001
+ L=6.108E-07
+ Is=18.9885
+ a=0.8623
+ L_Z0=0
+ L_EL=0
+ L_F0=0E6
+ PkZ=735.485296
.ends XGL4040-681_freq

*======================================================================
* SPICE Model generated by Coilcraft
* Coilcraft Part Number : XGL4040-681
* Inductance = 680nH
*======================================================================
* Model Parameters:
*   Valid Frequency Range = 0.1MHz-300MHz
*   Ambient Temperature = 25 degC
*   Inductor Saturation Model
*   Use model for Time Domain simulations
*======================================================================
.subckt XGL4040-681_sat port1 port2 PARAMS: Cpar=6.6pF Ind=0.68uH
X1 port1 port2 Model1C PARAMS:
+ R1=5
+ R2=0.004
+ C= {Cpar}
+ K1=0.000001
+ K2=0.088
+ K3= {Ind}
+ K4=0.000001
+ K5=0.000001
+ L=6.108E-07
+ Is=18.9885
+ a=0.8623
+ L_Z0=0
+ L_EL=0
+ L_F0=0E6
+ PkZ=735.485296
.ends XGL4040-681_sat

*======================================================================
* SPICE Model generated by Coilcraft
* Coilcraft Part Number : XGL4040-102
* Inductance = 1uH
*======================================================================
* Model Parameters:
*   Valid Frequency Range = 0.1MHz-300MHz
*   Ambient Temperature = 25 degC
*   Inductor Frequency Model
*   Use model for Frequency Domain simulations
*======================================================================
.subckt XGL4040-102_freq port1 port2 PARAMS: Cpar=7.4pF Ind=1uH
X1 port1 port2 Model1A PARAMS:
+ R1=7
+ R2=0.0056
+ C= {Cpar}
+ K1=0.000001
+ K2=0.152
+ K3= {Ind}
+ K4=0.000001
+ K5=0.000001
+ L=9.799E-07
+ Is=16.951
+ a=0.856
+ L_Z0=0
+ L_EL=0
+ L_F0=0E6
+ PkZ=1096.55905
.ends XGL4040-102_freq

*======================================================================
* SPICE Model generated by Coilcraft
* Coilcraft Part Number : XGL4040-102
* Inductance = 1uH
*======================================================================
* Model Parameters:
*   Valid Frequency Range = 0.1MHz-300MHz
*   Ambient Temperature = 25 degC
*   Inductor Saturation Model
*   Use model for Time Domain simulations
*======================================================================
.subckt XGL4040-102_sat port1 port2 PARAMS: Cpar=7.4pF Ind=1uH
X1 port1 port2 Model1C PARAMS:
+ R1=7
+ R2=0.0056
+ C= {Cpar}
+ K1=0.000001
+ K2=0.152
+ K3= {Ind}
+ K4=0.000001
+ K5=0.000001
+ L=9.799E-07
+ Is=16.951
+ a=0.856
+ L_Z0=0
+ L_EL=0
+ L_F0=0E6
+ PkZ=1096.55905
.ends XGL4040-102_sat

*======================================================================
* SPICE Model generated by Coilcraft
* Coilcraft Part Number : XGL4040-152
* Inductance = 1.5uH
*======================================================================
* Model Parameters:
*   Valid Frequency Range = 0.1MHz-300MHz
*   Ambient Temperature = 25 degC
*   Inductor Frequency Model
*   Use model for Frequency Domain simulations
*======================================================================
.subckt XGL4040-152_freq port1 port2 PARAMS: Cpar=7pF Ind=1.5uH
X1 port1 port2 Model1A PARAMS:
+ R1=8
+ R2=0.0079
+ C= {Cpar}
+ K1=0.000001
+ K2=0.225
+ K3= {Ind}
+ K4=0.000001
+ K5=0.000001
+ L=1.4521E-06
+ Is=15.136
+ a=0.8056
+ L_Z0=0
+ L_EL=0
+ L_F0=0E6
+ PkZ=1489.15907
.ends XGL4040-152_freq

*======================================================================
* SPICE Model generated by Coilcraft
* Coilcraft Part Number : XGL4040-152
* Inductance = 1.5uH
*======================================================================
* Model Parameters:
*   Valid Frequency Range = 0.1MHz-300MHz
*   Ambient Temperature = 25 degC
*   Inductor Saturation Model
*   Use model for Time Domain simulations
*======================================================================
.subckt XGL4040-152_sat port1 port2 PARAMS: Cpar=7pF Ind=1.5uH
X1 port1 port2 Model1C PARAMS:
+ R1=8
+ R2=0.0079
+ C= {Cpar}
+ K1=0.000001
+ K2=0.225
+ K3= {Ind}
+ K4=0.000001
+ K5=0.000001
+ L=1.4521E-06
+ Is=15.136
+ a=0.8056
+ L_Z0=0
+ L_EL=0
+ L_F0=0E6
+ PkZ=1489.15907
.ends XGL4040-152_sat

*======================================================================
* SPICE Model generated by Coilcraft
* Coilcraft Part Number : XGL4040-222
* Inductance = 2.2uH
*======================================================================
* Model Parameters:
*   Valid Frequency Range = 0.1MHz-250MHz
*   Ambient Temperature = 25 degC
*   Inductor Frequency Model
*   Use model for Frequency Domain simulations
*======================================================================
.subckt XGL4040-222_freq port1 port2 PARAMS: Cpar=7.4pF Ind=2.2uH
X1 port1 port2 Model1A PARAMS:
+ R1=5
+ R2=0.0115
+ C= {Cpar}
+ K1=0.000001
+ K2=0.33
+ K3= {Ind}
+ K4=0.000001
+ K5=0.000001
+ L=2.3119E-06
+ Is=12.277
+ a=0.8049
+ L_Z0=0
+ L_EL=0
+ L_F0=0E6
+ PkZ=2002.69845
.ends XGL4040-222_freq

*======================================================================
* SPICE Model generated by Coilcraft
* Coilcraft Part Number : XGL4040-222
* Inductance = 2.2uH
*======================================================================
* Model Parameters:
*   Valid Frequency Range = 0.1MHz-250MHz
*   Ambient Temperature = 25 degC
*   Inductor Saturation Model
*   Use model for Time Domain simulations
*======================================================================
.subckt XGL4040-222_sat port1 port2 PARAMS: Cpar=7.4pF Ind=2.2uH
X1 port1 port2 Model1C PARAMS:
+ R1=5
+ R2=0.0115
+ C= {Cpar}
+ K1=0.000001
+ K2=0.33
+ K3= {Ind}
+ K4=0.000001
+ K5=0.000001
+ L=2.3119E-06
+ Is=12.277
+ a=0.8049
+ L_Z0=0
+ L_EL=0
+ L_F0=0E6
+ PkZ=2002.69845
.ends XGL4040-222_sat

*======================================================================
* SPICE Model generated by Coilcraft
* Coilcraft Part Number : XGL4040-332
* Inductance = 3.3uH
*======================================================================
* Model Parameters:
*   Valid Frequency Range = 0.1MHz-150MHz
*   Ambient Temperature = 25 degC
*   Inductor Frequency Model
*   Use model for Frequency Domain simulations
*======================================================================
.subckt XGL4040-332_freq port1 port2 PARAMS: Cpar=7.4pF Ind=3.3uH
X1 port1 port2 Model1A PARAMS:
+ R1=5
+ R2=0.0166
+ C= {Cpar}
+ K1=0.000001
+ K2=0.526
+ K3= {Ind}
+ K4=0.000001
+ K5=0.000001
+ L=3.2223E-06
+ Is=10.9895
+ a=0.7647
+ L_Z0=0
+ L_EL=0
+ L_F0=0E6
+ PkZ=2888.34589
.ends XGL4040-332_freq

*======================================================================
* SPICE Model generated by Coilcraft
* Coilcraft Part Number : XGL4040-332
* Inductance = 3.3uH
*======================================================================
* Model Parameters:
*   Valid Frequency Range = 0.1MHz-150MHz
*   Ambient Temperature = 25 degC
*   Inductor Saturation Model
*   Use model for Time Domain simulations
*======================================================================
.subckt XGL4040-332_sat port1 port2 PARAMS: Cpar=7.4pF Ind=3.3uH
X1 port1 port2 Model1C PARAMS:
+ R1=5
+ R2=0.0166
+ C= {Cpar}
+ K1=0.000001
+ K2=0.526
+ K3= {Ind}
+ K4=0.000001
+ K5=0.000001
+ L=3.2223E-06
+ Is=10.9895
+ a=0.7647
+ L_Z0=0
+ L_EL=0
+ L_F0=0E6
+ PkZ=2888.34589
.ends XGL4040-332_sat

*======================================================================
* SPICE Model generated by Coilcraft
* Coilcraft Part Number : XGL4040-472
* Inductance = 4.7uH
*======================================================================
* Model Parameters:
*   Valid Frequency Range = 0.1MHz-150MHz
*   Ambient Temperature = 25 degC
*   Inductor Frequency Model
*   Use model for Frequency Domain simulations
*======================================================================
.subckt XGL4040-472_freq port1 port2 PARAMS: Cpar=8pF Ind=4.7uH
X1 port1 port2 Model1A PARAMS:
+ R1=5
+ R2=0.0245
+ C= {Cpar}
+ K1=0.000001
+ K2=0.8
+ K3= {Ind}
+ K4=0.000001
+ K5=0.000001
+ L=0.00000494
+ Is=8.6942
+ a=0.7726
+ L_Z0=0
+ L_EL=0
+ L_F0=0E6
+ PkZ=3938.97014
.ends XGL4040-472_freq

*======================================================================
* SPICE Model generated by Coilcraft
* Coilcraft Part Number : XGL4040-472
* Inductance = 4.7uH
*======================================================================
* Model Parameters:
*   Valid Frequency Range = 0.1MHz-150MHz
*   Ambient Temperature = 25 degC
*   Inductor Saturation Model
*   Use model for Time Domain simulations
*======================================================================
.subckt XGL4040-472_sat port1 port2 PARAMS: Cpar=8pF Ind=4.7uH
X1 port1 port2 Model1C PARAMS:
+ R1=5
+ R2=0.0245
+ C= {Cpar}
+ K1=0.000001
+ K2=0.8
+ K3= {Ind}
+ K4=0.000001
+ K5=0.000001
+ L=0.00000494
+ Is=8.6942
+ a=0.7726
+ L_Z0=0
+ L_EL=0
+ L_F0=0E6
+ PkZ=3938.97014
.ends XGL4040-472_sat

*======================================================================
* SPICE Model generated by Coilcraft
* Coilcraft Part Number : XGL4040-682
* Inductance = 6.8uH
*======================================================================
* Model Parameters:
*   Valid Frequency Range = 0.1MHz-150MHz
*   Ambient Temperature = 25 degC
*   Inductor Frequency Model
*   Use model for Frequency Domain simulations
*======================================================================
.subckt XGL4040-682_freq port1 port2 PARAMS: Cpar=8.7pF Ind=6.8uH
X1 port1 port2 Model1A PARAMS:
+ R1=12
+ R2=0.0347
+ C= {Cpar}
+ K1=0.000001
+ K2=0.79
+ K3= {Ind}
+ K4=0.000001
+ K5=0.000001
+ L=6.2938E-06
+ Is=7.487
+ a=0.8117
+ L_Z0=0
+ L_EL=0
+ L_F0=0E6
+ PkZ=3405.70187
.ends XGL4040-682_freq

*======================================================================
* SPICE Model generated by Coilcraft
* Coilcraft Part Number : XGL4040-682
* Inductance = 6.8uH
*======================================================================
* Model Parameters:
*   Valid Frequency Range = 0.1MHz-150MHz
*   Ambient Temperature = 25 degC
*   Inductor Saturation Model
*   Use model for Time Domain simulations
*======================================================================
.subckt XGL4040-682_sat port1 port2 PARAMS: Cpar=8.7pF Ind=6.8uH
X1 port1 port2 Model1C PARAMS:
+ R1=12
+ R2=0.0347
+ C= {Cpar}
+ K1=0.000001
+ K2=0.79
+ K3= {Ind}
+ K4=0.000001
+ K5=0.000001
+ L=6.2938E-06
+ Is=7.487
+ a=0.8117
+ L_Z0=0
+ L_EL=0
+ L_F0=0E6
+ PkZ=3405.70187
.ends XGL4040-682_sat

*======================================================================
* SPICE Model generated by Coilcraft
* Coilcraft Part Number : XGL4040-822
* Inductance = 8.2uH
*======================================================================
* Model Parameters:
*   Valid Frequency Range = 0.1MHz-100MHz
*   Ambient Temperature = 25 degC
*   Inductor Frequency Model
*   Use model for Frequency Domain simulations
*======================================================================
.subckt XGL4040-822_freq port1 port2 PARAMS: Cpar=9pF Ind=8.2uH
X1 port1 port2 Model1A PARAMS:
+ R1=8
+ R2=0.0412
+ C= {Cpar}
+ K1=0.000001
+ K2=1.6
+ K3= {Ind}
+ K4=0.000001
+ K5=0.000001
+ L=8.4035E-06
+ Is=6.0969
+ a=0.8105
+ L_Z0=0
+ L_EL=0
+ L_F0=0E6
+ PkZ=6493.95128
.ends XGL4040-822_freq

*======================================================================
* SPICE Model generated by Coilcraft
* Coilcraft Part Number : XGL4040-822
* Inductance = 8.2uH
*======================================================================
* Model Parameters:
*   Valid Frequency Range = 0.1MHz-100MHz
*   Ambient Temperature = 25 degC
*   Inductor Saturation Model
*   Use model for Time Domain simulations
*======================================================================
.subckt XGL4040-822_sat port1 port2 PARAMS: Cpar=9pF Ind=8.2uH
X1 port1 port2 Model1C PARAMS:
+ R1=8
+ R2=0.0412
+ C= {Cpar}
+ K1=0.000001
+ K2=1.6
+ K3= {Ind}
+ K4=0.000001
+ K5=0.000001
+ L=8.4035E-06
+ Is=6.0969
+ a=0.8105
+ L_Z0=0
+ L_EL=0
+ L_F0=0E6
+ PkZ=6493.95128
.ends XGL4040-822_sat

*======================================================================
* SPICE Model generated by Coilcraft
* Coilcraft Part Number : XGL4040-103
* Inductance = 10uH
*======================================================================
* Model Parameters:
*   Valid Frequency Range = 0.1MHz-100MHz
*   Ambient Temperature = 25 degC
*   Inductor Frequency Model
*   Use model for Frequency Domain simulations
*======================================================================
.subckt XGL4040-103_freq port1 port2 PARAMS: Cpar=8.1pF Ind=10uH
X1 port1 port2 Model1A PARAMS:
+ R1=8
+ R2=0.05035
+ C= {Cpar}
+ K1=0.000001
+ K2=1.86
+ K3= {Ind}
+ K4=0.000001
+ K5=0.000001
+ L=9.6948E-06
+ Is=5.2084
+ a=0.8287
+ L_Z0=0
+ L_EL=0
+ L_F0=0E6
+ PkZ=7444.2742
.ends XGL4040-103_freq

*======================================================================
* SPICE Model generated by Coilcraft
* Coilcraft Part Number : XGL4040-103
* Inductance = 10uH
*======================================================================
* Model Parameters:
*   Valid Frequency Range = 0.1MHz-100MHz
*   Ambient Temperature = 25 degC
*   Inductor Saturation Model
*   Use model for Time Domain simulations
*======================================================================
.subckt XGL4040-103_sat port1 port2 PARAMS: Cpar=8.1pF Ind=10uH
X1 port1 port2 Model1C PARAMS:
+ R1=8
+ R2=0.05035
+ C= {Cpar}
+ K1=0.000001
+ K2=1.86
+ K3= {Ind}
+ K4=0.000001
+ K5=0.000001
+ L=9.6948E-06
+ Is=5.2084
+ a=0.8287
+ L_Z0=0
+ L_EL=0
+ L_F0=0E6
+ PkZ=7444.2742
.ends XGL4040-103_sat

*======================================================================
* SPICE Model generated by Coilcraft
* Coilcraft Part Number : XGL4040-153
* Inductance = 15uH
*======================================================================
* Model Parameters:
*   Valid Frequency Range = 0.1MHz-50MHz
*   Ambient Temperature = 25 degC
*   Inductor Frequency Model
*   Use model for Frequency Domain simulations
*======================================================================
.subckt XGL4040-153_freq port1 port2 PARAMS: Cpar=8.2pF Ind=15uH
X1 port1 port2 Model1A PARAMS:
+ R1=10
+ R2=0.0822
+ C= {Cpar}
+ K1=0.000001
+ K2=3.03
+ K3= {Ind}
+ K4=0.000001
+ K5=0.000001
+ L=1.5624E-05
+ Is=4.8167
+ a=0.7858
+ L_Z0=0
+ L_EL=0
+ L_F0=0E6
+ PkZ=10800.4323
.ends XGL4040-153_freq

*======================================================================
* SPICE Model generated by Coilcraft
* Coilcraft Part Number : XGL4040-153
* Inductance = 15uH
*======================================================================
* Model Parameters:
*   Valid Frequency Range = 0.1MHz-50MHz
*   Ambient Temperature = 25 degC
*   Inductor Saturation Model
*   Use model for Time Domain simulations
*======================================================================
.subckt XGL4040-153_sat port1 port2 PARAMS: Cpar=8.2pF Ind=15uH
X1 port1 port2 Model1C PARAMS:
+ R1=10
+ R2=0.0822
+ C= {Cpar}
+ K1=0.000001
+ K2=3.03
+ K3= {Ind}
+ K4=0.000001
+ K5=0.000001
+ L=1.5624E-05
+ Is=4.8167
+ a=0.7858
+ L_Z0=0
+ L_EL=0
+ L_F0=0E6
+ PkZ=10800.4323
.ends XGL4040-153_sat

*======================================================================
* SPICE Model generated by Coilcraft
* Coilcraft Part Number : XGL4040-223
* Inductance = 22uH
*======================================================================
* Model Parameters:
*   Valid Frequency Range = 0.1MHz-50MHz
*   Ambient Temperature = 25 degC
*   Inductor Frequency Model
*   Use model for Frequency Domain simulations
*======================================================================
.subckt XGL4040-223_freq port1 port2 PARAMS: Cpar=9pF Ind=22uH
X1 port1 port2 Model1A PARAMS:
+ R1=10
+ R2=0.1147
+ C= {Cpar}
+ K1=0.000001
+ K2=3.78
+ K3= {Ind}
+ K4=0.000001
+ K5=0.000001
+ L=2.2082E-05
+ Is=3.4391
+ a=0.8131
+ L_Z0=0
+ L_EL=0
+ L_F0=0E6
+ PkZ=12084.1198
.ends XGL4040-223_freq

*======================================================================
* SPICE Model generated by Coilcraft
* Coilcraft Part Number : XGL4040-223
* Inductance = 22uH
*======================================================================
* Model Parameters:
*   Valid Frequency Range = 0.1MHz-50MHz
*   Ambient Temperature = 25 degC
*   Inductor Saturation Model
*   Use model for Time Domain simulations
*======================================================================
.subckt XGL4040-223_sat port1 port2 PARAMS: Cpar=9pF Ind=22uH
X1 port1 port2 Model1C PARAMS:
+ R1=10
+ R2=0.1147
+ C= {Cpar}
+ K1=0.000001
+ K2=3.78
+ K3= {Ind}
+ K4=0.000001
+ K5=0.000001
+ L=2.2082E-05
+ Is=3.4391
+ a=0.8131
+ L_Z0=0
+ L_EL=0
+ L_F0=0E6
+ PkZ=12084.1198
.ends XGL4040-223_sat

*======================================================================
* SPICE Model generated by Coilcraft
* Coilcraft Saturation Inductor Model
*======================================================================
* Model Parameters:
*   Valid Frequency Range Varies by Inductor
*   Ambient Temperature = 25 degC
*   Current Saturable Inductor Model
*======================================================================
.subckt Model1C Lin Lout PARAMS:
+ R1=1
+ R2=1
+ C=1
+ L=1
+ Is=1
+ a=1
+ PkZ=94.2 * {L} *1e6
R2 Lin N001 {R2}
R3 N001 Lout {PkZ}
C1 N001 N002 {C}
R1 N002 Lout {R1}
L1 N001 Lout flux={L*Is}*pwrs(tanh(pwrs((x/{Is}),{a})),{1/a})
.ends Model1C





*======================================================================
* SPICE Model generated by Coilcraft
* Coilcraft Power Inductor Model
*======================================================================
* Model Parameters:
*   Valid Frequency Range Varies by Inductor
*   Ambient Temperature = 25 degC
*   DC Bias Current = 0 A
*   Frequency Dependent Inductor Model
*======================================================================
.subckt Model1A Lin Lout PARAMS:
+ R1=1
+ R2=1
+ C=1
+ K1=1
+ K2=1
+ K3=1
+ K4=1
+ K5=1
R2 N001 Lin {R2}
R1 Lout N002 {R1}
C1 N002 N001 {C}
G_Rvar2 N001 Lout LAPLACE { V(N001, Lout) } {1/K2/(-S*S/4/PI^2)^0.25}
G_Rvar1 N001 N003 LAPLACE { V(N001, N003) } {1/K1/(-S*S/4/PI^2)^0.25}
G_Lvar N003 Lout  LAPLACE { V(N003, Lout) } {1/(S*1e-6*({K3*1e6}-({K4}*LOG({K5}*(sqrt(-S*S)/(2*pi))))))}
*This large resistance to ground has been added to prevent a floating node error
R3 N003 0 100Meg
.ends Model1A


.subckt Coilcraft_Inductor Lin Lout
R1 Lout Lin 100Meg
.ends Coilcraft_Inductor
