*======================================================================
* SPICE Model generated by Coilcraft
* Coilcraft Part Number : XGL4015-101
* Inductance = 100nH
*======================================================================
* Model Parameters:
*   Valid Frequency Range = 0.1MHz-500MHz
*   Ambient Temperature = 25 degC
*   Inductor Frequency Model
*   Use model for Frequency Domain simulations
*======================================================================
.subckt XGL4015-101_freq port1 port2 PARAMS: Cpar=3.5pF Ind=0.1uH
X1 port1 port2 Model1A PARAMS:
+ R1=6.8
+ R2=0.0022
+ C= {Cpar}
+ K1=0.000001
+ K2=0.016
+ K3= {Ind}
+ K4=0.000835
+ K5=0.000104
+ L=9.65E-08
+ Is=67.7965
+ a=0.5698
+ L_Z0=0
+ L_EL=0
+ L_F0=0E6
+ PkZ=250.829773
.ends XGL4015-101_freq

*======================================================================
* SPICE Model generated by Coilcraft
* Coilcraft Part Number : XGL4015-101
* Inductance = 100nH
*======================================================================
* Model Parameters:
*   Valid Frequency Range = 0.1MHz-500MHz
*   Ambient Temperature = 25 degC
*   Inductor Saturation Model
*   Use model for Time Domain simulations
*======================================================================
.subckt XGL4015-101_sat port1 port2 PARAMS: Cpar=3.201pF Ind=0.1uH
X1 port1 port2 Model1C PARAMS:
+ R1=6.8
+ R2=0.0022
+ C= {Cpar}
+ K1=0.000001
+ K2=0.016
+ K3= {Ind}
+ K4=0.000835
+ K5=0.000104
+ L=9.65E-08
+ Is=67.7965
+ a=0.5698
+ L_Z0=0
+ L_EL=0
+ L_F0=0E6
+ PkZ=250.829773
.ends XGL4015-101_sat

*======================================================================
* SPICE Model generated by Coilcraft
* Coilcraft Part Number : XGL4015-121
* Inductance = 120nH
*======================================================================
* Model Parameters:
*   Valid Frequency Range = 0.1MHz-500MHz
*   Ambient Temperature = 25 degC
*   Inductor Frequency Model
*   Use model for Frequency Domain simulations
*======================================================================
.subckt XGL4015-121_freq port1 port2 PARAMS: Cpar=3.7pF Ind=0.12uH
X1 port1 port2 Model1A PARAMS:
+ R1=7
+ R2=0.0028
+ C= {Cpar}
+ K1=0.000001
+ K2=0.019
+ K3= {Ind}
+ K4=0.000159
+ K5=0.000104
+ L=1.217E-07
+ Is=54.1449
+ a=0.6306
+ L_Z0=0
+ L_EL=0
+ L_F0=0E6
+ PkZ=276.783987
.ends XGL4015-121_freq

*======================================================================
* SPICE Model generated by Coilcraft
* Coilcraft Part Number : XGL4015-121
* Inductance = 120nH
*======================================================================
* Model Parameters:
*   Valid Frequency Range = 0.1MHz-500MHz
*   Ambient Temperature = 25 degC
*   Inductor Saturation Model
*   Use model for Time Domain simulations
*======================================================================
.subckt XGL4015-121_sat port1 port2 PARAMS: Cpar=3.65pF Ind=0.12uH
X1 port1 port2 Model1C PARAMS:
+ R1=7
+ R2=0.0028
+ C= {Cpar}
+ K1=0.000001
+ K2=0.019
+ K3= {Ind}
+ K4=0.000159
+ K5=0.000104
+ L=1.217E-07
+ Is=54.1449
+ a=0.6306
+ L_Z0=0
+ L_EL=0
+ L_F0=0E6
+ PkZ=276.783987
.ends XGL4015-121_sat

*======================================================================
* SPICE Model generated by Coilcraft
* Coilcraft Part Number : XGL4015-221
* Inductance = 220nH
*======================================================================
* Model Parameters:
*   Valid Frequency Range = 0.1MHz-500MHz
*   Ambient Temperature = 25 degC
*   Inductor Frequency Model
*   Use model for Frequency Domain simulations
*======================================================================
.subckt XGL4015-221_freq port1 port2 PARAMS: Cpar=4.8pF Ind=0.22uH
X1 port1 port2 Model1A PARAMS:
+ R1=7.5
+ R2=0.0041
+ C= {Cpar}
+ K1=0.000001
+ K2=0.035
+ K3= {Ind}
+ K4=0.000161
+ K5=0.000104
+ L=2.138E-07
+ Is=43.6279
+ a=0.5672
+ L_Z0=0
+ L_EL=0
+ L_F0=0E6
+ PkZ=407.067048
.ends XGL4015-221_freq

*======================================================================
* SPICE Model generated by Coilcraft
* Coilcraft Part Number : XGL4015-221
* Inductance = 220nH
*======================================================================
* Model Parameters:
*   Valid Frequency Range = 0.1MHz-500MHz
*   Ambient Temperature = 25 degC
*   Inductor Saturation Model
*   Use model for Time Domain simulations
*======================================================================
.subckt XGL4015-221_sat port1 port2 PARAMS: Cpar=4.766pF Ind=0.22uH
X1 port1 port2 Model1C PARAMS:
+ R1=7.5
+ R2=0.0041
+ C= {Cpar}
+ K1=0.000001
+ K2=0.035
+ K3= {Ind}
+ K4=0.000161
+ K5=0.000104
+ L=2.138E-07
+ Is=43.6279
+ a=0.5672
+ L_Z0=0
+ L_EL=0
+ L_F0=0E6
+ PkZ=407.067048
.ends XGL4015-221_sat

*======================================================================
* SPICE Model generated by Coilcraft
* Coilcraft Part Number : XGL4015-301
* Inductance = 300nH
*======================================================================
* Model Parameters:
*   Valid Frequency Range = 0.1MHz-300MHz
*   Ambient Temperature = 25 degC
*   Inductor Frequency Model
*   Use model for Frequency Domain simulations
*======================================================================
.subckt XGL4015-301_freq port1 port2 PARAMS: Cpar=4.6pF Ind=0.3uH
X1 port1 port2 Model1A PARAMS:
+ R1=4.5
+ R2=0.0041
+ C= {Cpar}
+ K1=0.000001
+ K2=0.045
+ K3= {Ind}
+ K4=0.0000922
+ K5=0.000104
+ L=3.03E-07
+ Is=29.8926
+ a=0.6716
+ L_Z0=0
+ L_EL=0
+ L_F0=0E6
+ PkZ=505.78527
.ends XGL4015-301_freq

*======================================================================
* SPICE Model generated by Coilcraft
* Coilcraft Part Number : XGL4015-301
* Inductance = 300nH
*======================================================================
* Model Parameters:
*   Valid Frequency Range = 0.1MHz-300MHz
*   Ambient Temperature = 25 degC
*   Inductor Saturation Model
*   Use model for Time Domain simulations
*======================================================================
.subckt XGL4015-301_sat port1 port2 PARAMS: Cpar=4.586pF Ind=0.3uH
X1 port1 port2 Model1C PARAMS:
+ R1=4.5
+ R2=0.0041
+ C= {Cpar}
+ K1=0.000001
+ K2=0.045
+ K3= {Ind}
+ K4=0.0000922
+ K5=0.000104
+ L=3.03E-07
+ Is=29.8926
+ a=0.6716
+ L_Z0=0
+ L_EL=0
+ L_F0=0E6
+ PkZ=505.78527
.ends XGL4015-301_sat

*======================================================================
* SPICE Model generated by Coilcraft
* Coilcraft Part Number : XGL4015-471
* Inductance = 470nH
*======================================================================
* Model Parameters:
*   Valid Frequency Range = 0.1MHz-300MHz
*   Ambient Temperature = 25 degC
*   Inductor Frequency Model
*   Use model for Frequency Domain simulations
*======================================================================
.subckt XGL4015-471_freq port1 port2 PARAMS: Cpar=5.2pF Ind=0.47uH
X1 port1 port2 Model1A PARAMS:
+ R1=3
+ R2=0.0075
+ C= {Cpar}
+ K1=0.000001
+ K2=0.07
+ K3= {Ind}
+ K4=0.0000922
+ K5=0.000104
+ L=4.737E-07
+ Is=25.6127
+ a=0.6454
+ L_Z0=0
+ L_EL=0
+ L_F0=0E6
+ PkZ=690.345182
.ends XGL4015-471_freq

*======================================================================
* SPICE Model generated by Coilcraft
* Coilcraft Part Number : XGL4015-471
* Inductance = 470nH
*======================================================================
* Model Parameters:
*   Valid Frequency Range = 0.1MHz-300MHz
*   Ambient Temperature = 25 degC
*   Inductor Saturation Model
*   Use model for Time Domain simulations
*======================================================================
.subckt XGL4015-471_sat port1 port2 PARAMS: Cpar=5.191pF Ind=0.47uH
X1 port1 port2 Model1C PARAMS:
+ R1=3
+ R2=0.0075
+ C= {Cpar}
+ K1=0.000001
+ K2=0.07
+ K3= {Ind}
+ K4=0.0000922
+ K5=0.000104
+ L=4.737E-07
+ Is=25.6127
+ a=0.6454
+ L_Z0=0
+ L_EL=0
+ L_F0=0E6
+ PkZ=690.345182
.ends XGL4015-471_sat

*======================================================================
* SPICE Model generated by Coilcraft
* Coilcraft Part Number : XGL4015-521
* Inductance = 520nH
*======================================================================
* Model Parameters:
*   Valid Frequency Range = 0.1MHz-300MHz
*   Ambient Temperature = 25 degC
*   Inductor Frequency Model
*   Use model for Frequency Domain simulations
*======================================================================
.subckt XGL4015-521_freq port1 port2 PARAMS: Cpar=5.1pF Ind=0.52uH
X1 port1 port2 Model1A PARAMS:
+ R1=3
+ R2=0.0096
+ C= {Cpar}
+ K1=0.000001
+ K2=0.075
+ K3= {Ind}
+ K4=0.00152
+ K5=0.0000196
+ L=5.208E-07
+ Is=23.7463
+ a=0.6677
+ L_Z0=0
+ L_EL=0
+ L_F0=0E6
+ PkZ=729.194571
.ends XGL4015-521_freq

*======================================================================
* SPICE Model generated by Coilcraft
* Coilcraft Part Number : XGL4015-521
* Inductance = 520nH
*======================================================================
* Model Parameters:
*   Valid Frequency Range = 0.1MHz-300MHz
*   Ambient Temperature = 25 degC
*   Inductor Saturation Model
*   Use model for Time Domain simulations
*======================================================================
.subckt XGL4015-521_sat port1 port2 PARAMS: Cpar=4.987pF Ind=0.52uH
X1 port1 port2 Model1C PARAMS:
+ R1=3
+ R2=0.0096
+ C= {Cpar}
+ K1=0.000001
+ K2=0.075
+ K3= {Ind}
+ K4=0.00152
+ K5=0.0000196
+ L=5.208E-07
+ Is=23.7463
+ a=0.6677
+ L_Z0=0
+ L_EL=0
+ L_F0=0E6
+ PkZ=729.194571
.ends XGL4015-521_sat

*======================================================================
* SPICE Model generated by Coilcraft
* Coilcraft Part Number : XGL4015-681
* Inductance = 680nH
*======================================================================
* Model Parameters:
*   Valid Frequency Range = 0.1MHz-250MHz
*   Ambient Temperature = 25 degC
*   Inductor Frequency Model
*   Use model for Frequency Domain simulations
*======================================================================
.subckt XGL4015-681_freq port1 port2 PARAMS: Cpar=6pF Ind=0.68uH
X1 port1 port2 Model1A PARAMS:
+ R1=5
+ R2=0.0101
+ C= {Cpar}
+ K1=0.000001
+ K2=0.104
+ K3= {Ind}
+ K4=0.00345
+ K5=0.00135
+ L=6.316E-07
+ Is=23.5156
+ a=0.6064
+ L_Z0=0
+ L_EL=0
+ L_F0=0E6
+ PkZ=897.748012
.ends XGL4015-681_freq

*======================================================================
* SPICE Model generated by Coilcraft
* Coilcraft Part Number : XGL4015-681
* Inductance = 680nH
*======================================================================
* Model Parameters:
*   Valid Frequency Range = 0.1MHz-250MHz
*   Ambient Temperature = 25 degC
*   Inductor Saturation Model
*   Use model for Time Domain simulations
*======================================================================
.subckt XGL4015-681_sat port1 port2 PARAMS: Cpar=5.648pF Ind=0.68uH
X1 port1 port2 Model1C PARAMS:
+ R1=5
+ R2=0.0101
+ C= {Cpar}
+ K1=0.000001
+ K2=0.104
+ K3= {Ind}
+ K4=0.00345
+ K5=0.00135
+ L=6.316E-07
+ Is=23.5156
+ a=0.6064
+ L_Z0=0
+ L_EL=0
+ L_F0=0E6
+ PkZ=897.748012
.ends XGL4015-681_sat

*======================================================================
* SPICE Model generated by Coilcraft
* Coilcraft Part Number : XGL4015-821
* Inductance = 820nH
*======================================================================
* Model Parameters:
*   Valid Frequency Range = 0.1MHz-250MHz
*   Ambient Temperature = 25 degC
*   Inductor Frequency Model
*   Use model for Frequency Domain simulations
*======================================================================
.subckt XGL4015-821_freq port1 port2 PARAMS: Cpar=6.1pF Ind=0.82uH
X1 port1 port2 Model1A PARAMS:
+ R1=5
+ R2=0.0154
+ C= {Cpar}
+ K1=0.000001
+ K2=0.13
+ K3= {Ind}
+ K4=0.000954
+ K5=0.000112
+ L=8.353E-07
+ Is=18.2477
+ a=0.6704
+ L_Z0=0
+ L_EL=0
+ L_F0=0E6
+ PkZ=1055.84586
.ends XGL4015-821_freq

*======================================================================
* SPICE Model generated by Coilcraft
* Coilcraft Part Number : XGL4015-821
* Inductance = 820nH
*======================================================================
* Model Parameters:
*   Valid Frequency Range = 0.1MHz-250MHz
*   Ambient Temperature = 25 degC
*   Inductor Saturation Model
*   Use model for Time Domain simulations
*======================================================================
.subckt XGL4015-821_sat port1 port2 PARAMS: Cpar=6.036pF Ind=0.82uH
X1 port1 port2 Model1C PARAMS:
+ R1=5
+ R2=0.0154
+ C= {Cpar}
+ K1=0.000001
+ K2=0.13
+ K3= {Ind}
+ K4=0.000954
+ K5=0.000112
+ L=8.353E-07
+ Is=18.2477
+ a=0.6704
+ L_Z0=0
+ L_EL=0
+ L_F0=0E6
+ PkZ=1055.84586
.ends XGL4015-821_sat

*======================================================================
* SPICE Model generated by Coilcraft
* Coilcraft Part Number : XGL4015-102
* Inductance = 1uH
*======================================================================
* Model Parameters:
*   Valid Frequency Range = 0.1MHz-250MHz
*   Ambient Temperature = 25 degC
*   Inductor Frequency Model
*   Use model for Frequency Domain simulations
*======================================================================
.subckt XGL4015-102_freq port1 port2 PARAMS: Cpar=6.3pF Ind=1uH
X1 port1 port2 Model1A PARAMS:
+ R1=4
+ R2=0.018
+ C= {Cpar}
+ K1=0.000001
+ K2=0.16
+ K3= {Ind}
+ K4=0.00167
+ K5=0.000114
+ L=1.0086E-06
+ Is=18.2236
+ a=0.6275
+ L_Z0=0
+ L_EL=0
+ L_F0=0E6
+ PkZ=1238.28034
.ends XGL4015-102_freq

*======================================================================
* SPICE Model generated by Coilcraft
* Coilcraft Part Number : XGL4015-102
* Inductance = 1uH
*======================================================================
* Model Parameters:
*   Valid Frequency Range = 0.1MHz-250MHz
*   Ambient Temperature = 25 degC
*   Inductor Saturation Model
*   Use model for Time Domain simulations
*======================================================================
.subckt XGL4015-102_sat port1 port2 PARAMS: Cpar=6.207pF Ind=1uH
X1 port1 port2 Model1C PARAMS:
+ R1=4
+ R2=0.018
+ C= {Cpar}
+ K1=0.000001
+ K2=0.16
+ K3= {Ind}
+ K4=0.00167
+ K5=0.000114
+ L=1.0086E-06
+ Is=18.2236
+ a=0.6275
+ L_Z0=0
+ L_EL=0
+ L_F0=0E6
+ PkZ=1238.28034
.ends XGL4015-102_sat

*======================================================================
* SPICE Model generated by Coilcraft
* Coilcraft Part Number : XGL4015-152
* Inductance = 1.5uH
*======================================================================
* Model Parameters:
*   Valid Frequency Range = 0.1MHz-250MHz
*   Ambient Temperature = 25 degC
*   Inductor Frequency Model
*   Use model for Frequency Domain simulations
*======================================================================
.subckt XGL4015-152_freq port1 port2 PARAMS: Cpar=6.1pF Ind=1.5uH
X1 port1 port2 Model1A PARAMS:
+ R1=6
+ R2=0.0236
+ C= {Cpar}
+ K1=0.000001
+ K2=0.23
+ K3= {Ind}
+ K4=0.00167
+ K5=0.000114
+ L=1.4318E-06
+ Is=14.857
+ a=0.6521
+ L_Z0=0
+ L_EL=0
+ L_F0=0E6
+ PkZ=1606.1676
.ends XGL4015-152_freq

*======================================================================
* SPICE Model generated by Coilcraft
* Coilcraft Part Number : XGL4015-152
* Inductance = 1.5uH
*======================================================================
* Model Parameters:
*   Valid Frequency Range = 0.1MHz-250MHz
*   Ambient Temperature = 25 degC
*   Inductor Saturation Model
*   Use model for Time Domain simulations
*======================================================================
.subckt XGL4015-152_sat port1 port2 PARAMS: Cpar=6.041pF Ind=1.5uH
X1 port1 port2 Model1C PARAMS:
+ R1=6
+ R2=0.0236
+ C= {Cpar}
+ K1=0.000001
+ K2=0.23
+ K3= {Ind}
+ K4=0.00167
+ K5=0.000114
+ L=1.4318E-06
+ Is=14.857
+ a=0.6521
+ L_Z0=0
+ L_EL=0
+ L_F0=0E6
+ PkZ=1606.1676
.ends XGL4015-152_sat

*======================================================================
* SPICE Model generated by Coilcraft
* Coilcraft Part Number : XGL4015-222
* Inductance = 2.2uH
*======================================================================
* Model Parameters:
*   Valid Frequency Range = 0.1MHz-250MHz
*   Ambient Temperature = 25 degC
*   Inductor Frequency Model
*   Use model for Frequency Domain simulations
*======================================================================
.subckt XGL4015-222_freq port1 port2 PARAMS: Cpar=7.2pF Ind=2.2uH
X1 port1 port2 Model1A PARAMS:
+ R1=5
+ R2=0.036
+ C= {Cpar}
+ K1=0.000001
+ K2=0.38
+ K3= {Ind}
+ K4=0.000001
+ K5=0.000001
+ L=2.0531E-06
+ Is=11.1275
+ a=0.6682
+ L_Z0=0
+ L_EL=0
+ L_F0=0E6
+ PkZ=2312.02343
.ends XGL4015-222_freq

*======================================================================
* SPICE Model generated by Coilcraft
* Coilcraft Part Number : XGL4015-222
* Inductance = 2.2uH
*======================================================================
* Model Parameters:
*   Valid Frequency Range = 0.1MHz-250MHz
*   Ambient Temperature = 25 degC
*   Inductor Saturation Model
*   Use model for Time Domain simulations
*======================================================================
.subckt XGL4015-222_sat port1 port2 PARAMS: Cpar=7.2pF Ind=2.2uH
X1 port1 port2 Model1C PARAMS:
+ R1=5
+ R2=0.036
+ C= {Cpar}
+ K1=0.000001
+ K2=0.38
+ K3= {Ind}
+ K4=0.000001
+ K5=0.000001
+ L=2.0531E-06
+ Is=11.1275
+ a=0.6682
+ L_Z0=0
+ L_EL=0
+ L_F0=0E6
+ PkZ=2312.02343
.ends XGL4015-222_sat

*======================================================================
* SPICE Model generated by Coilcraft
* Coilcraft Part Number : XGL4015-272
* Inductance = 2.7uH
*======================================================================
* Model Parameters:
*   Valid Frequency Range = 0.1MHz-250MHz
*   Ambient Temperature = 25 degC
*   Inductor Frequency Model
*   Use model for Frequency Domain simulations
*======================================================================
.subckt XGL4015-272_freq port1 port2 PARAMS: Cpar=5.6pF Ind=2.7uH
X1 port1 port2 Model1A PARAMS:
+ R1=4
+ R2=0.0488
+ C= {Cpar}
+ K1=0.000001
+ K2=0.4
+ K3= {Ind}
+ K4=0.000001
+ K5=0.000001
+ L=2.5322E-06
+ Is=9.6649
+ a=0.7195
+ L_Z0=0
+ L_EL=0
+ L_F0=0E6
+ PkZ=2505.83605
.ends XGL4015-272_freq

*======================================================================
* SPICE Model generated by Coilcraft
* Coilcraft Part Number : XGL4015-272
* Inductance = 2.7uH
*======================================================================
* Model Parameters:
*   Valid Frequency Range = 0.1MHz-250MHz
*   Ambient Temperature = 25 degC
*   Inductor Saturation Model
*   Use model for Time Domain simulations
*======================================================================
.subckt XGL4015-272_sat port1 port2 PARAMS: Cpar=5.6pF Ind=2.7uH
X1 port1 port2 Model1C PARAMS:
+ R1=4
+ R2=0.0488
+ C= {Cpar}
+ K1=0.000001
+ K2=0.4
+ K3= {Ind}
+ K4=0.000001
+ K5=0.000001
+ L=2.5322E-06
+ Is=9.6649
+ a=0.7195
+ L_Z0=0
+ L_EL=0
+ L_F0=0E6
+ PkZ=2505.83605
.ends XGL4015-272_sat

*======================================================================
* SPICE Model generated by Coilcraft
* Coilcraft Saturation Inductor Model
*======================================================================
* Model Parameters:
*   Valid Frequency Range Varies by Inductor
*   Ambient Temperature = 25 degC
*   Current Saturable Inductor Model
*======================================================================
.subckt Model1C Lin Lout PARAMS:
+ R1=1
+ R2=1
+ C=1
+ L=1
+ Is=1
+ a=1
+ PkZ=94.2 * {L} *1e6
R2 Lin N001 {R2}
R3 N001 Lout {PkZ}
C1 N001 N002 {C}
R1 N002 Lout {R1}
L1 N001 Lout flux={L*Is}*pwrs(tanh(pwrs((x/{Is}),{a})),{1/a})
.ends Model1C





*======================================================================
* SPICE Model generated by Coilcraft
* Coilcraft Power Inductor Model
*======================================================================
* Model Parameters:
*   Valid Frequency Range Varies by Inductor
*   Ambient Temperature = 25 degC
*   DC Bias Current = 0 A
*   Frequency Dependent Inductor Model
*======================================================================
.subckt Model1A Lin Lout PARAMS:
+ R1=1
+ R2=1
+ C=1
+ K1=1
+ K2=1
+ K3=1
+ K4=1
+ K5=1
R2 N001 Lin {R2}
R1 Lout N002 {R1}
C1 N002 N001 {C}
G_Rvar2 N001 Lout LAPLACE { V(N001, Lout) } {1/K2/(-S*S/4/PI^2)^0.25}
G_Rvar1 N001 N003 LAPLACE { V(N001, N003) } {1/K1/(-S*S/4/PI^2)^0.25}
G_Lvar N003 Lout  LAPLACE { V(N003, Lout) } {1/(S*1e-6*({K3*1e6}-({K4}*LOG({K5}*(sqrt(-S*S)/(2*pi))))))}
*This large resistance to ground has been added to prevent a floating node error
R3 N003 0 100Meg
.ends Model1A


.subckt Coilcraft_Inductor Lin Lout
R1 Lout Lin 100Meg
.ends Coilcraft_Inductor
