*======================================================================
* SPICE Model generated by Coilcraft
* Coilcraft Part Number : XGL4020-111
* Inductance = 110nH
*======================================================================
* Model Parameters:
*   Valid Frequency Range = 0.1MHz-500MHz
*   Ambient Temperature = 25 degC
*   Inductor Frequency Model
*   Use model for Frequency Domain simulations
*======================================================================
.subckt XGL4020-111_freq port1 port2 PARAMS: Cpar=4.2pF Ind=0.11uH
X1 port1 port2 Model1A PARAMS:
+ R1=2.1
+ R2=0.0014
+ C= {Cpar}
+ K1=0.000001
+ K2=0.016
+ K3= {Ind}
+ K4=0.000001
+ K5=0.000779
+ L=1.12E-07
+ Is=56.8361
+ a=0.6936
+ L_Z0=0
+ L_EL=0
+ L_F0=0E6
+ PkZ=240.093424
.ends XGL4020-111_freq

*======================================================================
* SPICE Model generated by Coilcraft
* Coilcraft Part Number : XGL4020-111
* Inductance = 110nH
*======================================================================
* Model Parameters:
*   Valid Frequency Range = 0.1MHz-500MHz
*   Ambient Temperature = 25 degC
*   Inductor Saturation Model
*   Use model for Time Domain simulations
*======================================================================
.subckt XGL4020-111_sat port1 port2 PARAMS: Cpar=4.2pF Ind=0.11uH
X1 port1 port2 Model1C PARAMS:
+ R1=2.1
+ R2=0.0014
+ C= {Cpar}
+ K1=0.000001
+ K2=0.016
+ K3= {Ind}
+ K4=0.000001
+ K5=0.000779
+ L=1.12E-07
+ Is=56.8361
+ a=0.6936
+ L_Z0=0
+ L_EL=0
+ L_F0=0E6
+ PkZ=240.093424
.ends XGL4020-111_sat

*======================================================================
* SPICE Model generated by Coilcraft
* Coilcraft Part Number : XGL4020-251
* Inductance = 250nH
*======================================================================
* Model Parameters:
*   Valid Frequency Range = 0.1MHz-300MHz
*   Ambient Temperature = 25 degC
*   Inductor Frequency Model
*   Use model for Frequency Domain simulations
*======================================================================
.subckt XGL4020-251_freq port1 port2 PARAMS: Cpar=6pF Ind=0.25uH
X1 port1 port2 Model1A PARAMS:
+ R1=2
+ R2=0.0025
+ C= {Cpar}
+ K1=0.000001
+ K2=0.035
+ K3= {Ind}
+ K4=0.00029195
+ K5=0.00089544
+ L=2.506E-07
+ Is=37.1299
+ a=0.6981
+ L_Z0=0
+ L_EL=0
+ L_F0=0E6
+ PkZ=392.663724
.ends XGL4020-251_freq

*======================================================================
* SPICE Model generated by Coilcraft
* Coilcraft Part Number : XGL4020-251
* Inductance = 250nH
*======================================================================
* Model Parameters:
*   Valid Frequency Range = 0.1MHz-300MHz
*   Ambient Temperature = 25 degC
*   Inductor Saturation Model
*   Use model for Time Domain simulations
*======================================================================
.subckt XGL4020-251_sat port1 port2 PARAMS: Cpar=5.918pF Ind=0.25uH
X1 port1 port2 Model1C PARAMS:
+ R1=2
+ R2=0.0025
+ C= {Cpar}
+ K1=0.000001
+ K2=0.035
+ K3= {Ind}
+ K4=0.00029195
+ K5=0.00089544
+ L=2.506E-07
+ Is=37.1299
+ a=0.6981
+ L_Z0=0
+ L_EL=0
+ L_F0=0E6
+ PkZ=392.663724
.ends XGL4020-251_sat

*======================================================================
* SPICE Model generated by Coilcraft
* Coilcraft Part Number : XGL4020-331
* Inductance = 330nH
*======================================================================
* Model Parameters:
*   Valid Frequency Range = 0.1MHz-120MHz
*   Ambient Temperature = 25 degC
*   Inductor Frequency Model
*   Use model for Frequency Domain simulations
*======================================================================
.subckt XGL4020-331_freq port1 port2 PARAMS: Cpar=6.5pF Ind=0.33uH
X1 port1 port2 Model1A PARAMS:
+ R1=24.16
+ R2=0.003
+ C= {Cpar}
+ K1=0.000001
+ K2=0.071
+ K3= {Ind}
+ K4=0.00069
+ K5=0.000001
+ L=3.283E-07
+ Is=34.1558
+ a=0.629
+ L_Z0=0
+ L_EL=0
+ L_F0=0E6
+ PkZ=548.314436
.ends XGL4020-331_freq

*======================================================================
* SPICE Model generated by Coilcraft
* Coilcraft Part Number : XGL4020-331
* Inductance = 330nH
*======================================================================
* Model Parameters:
*   Valid Frequency Range = 0.1MHz-120MHz
*   Ambient Temperature = 25 degC
*   Inductor Saturation Model
*   Use model for Time Domain simulations
*======================================================================
.subckt XGL4020-331_sat port1 port2 PARAMS: Cpar=6.436pF Ind=0.33uH
X1 port1 port2 Model1C PARAMS:
+ R1=24.16
+ R2=0.003
+ C= {Cpar}
+ K1=0.000001
+ K2=0.071
+ K3= {Ind}
+ K4=0.00069
+ K5=0.000001
+ L=3.283E-07
+ Is=34.1558
+ a=0.629
+ L_Z0=0
+ L_EL=0
+ L_F0=0E6
+ PkZ=548.314436
.ends XGL4020-331_sat

*======================================================================
* SPICE Model generated by Coilcraft
* Coilcraft Part Number : XGL4020-471
* Inductance = 470nH
*======================================================================
* Model Parameters:
*   Valid Frequency Range = 0.1MHz-120MHz
*   Ambient Temperature = 25 degC
*   Inductor Frequency Model
*   Use model for Frequency Domain simulations
*======================================================================
.subckt XGL4020-471_freq port1 port2 PARAMS: Cpar=6.2pF Ind=0.47uH
X1 port1 port2 Model1A PARAMS:
+ R1=20.4
+ R2=0.0042
+ C= {Cpar}
+ K1=0.000001
+ K2=0.089
+ K3= {Ind}
+ K4=0.0012
+ K5=0.063
+ L=4.572E-07
+ Is=25.8805
+ a=0.7438
+ L_Z0=0
+ L_EL=0
+ L_F0=0E6
+ PkZ=698.887365
.ends XGL4020-471_freq

*======================================================================
* SPICE Model generated by Coilcraft
* Coilcraft Part Number : XGL4020-471
* Inductance = 470nH
*======================================================================
* Model Parameters:
*   Valid Frequency Range = 0.1MHz-120MHz
*   Ambient Temperature = 25 degC
*   Inductor Saturation Model
*   Use model for Time Domain simulations
*======================================================================
.subckt XGL4020-471_sat port1 port2 PARAMS: Cpar=5.953pF Ind=0.47uH
X1 port1 port2 Model1C PARAMS:
+ R1=20.4
+ R2=0.0042
+ C= {Cpar}
+ K1=0.000001
+ K2=0.089
+ K3= {Ind}
+ K4=0.0012
+ K5=0.063
+ L=4.572E-07
+ Is=25.8805
+ a=0.7438
+ L_Z0=0
+ L_EL=0
+ L_F0=0E6
+ PkZ=698.887365
.ends XGL4020-471_sat

*======================================================================
* SPICE Model generated by Coilcraft
* Coilcraft Part Number : XGL4020-601
* Inductance = 600nH
*======================================================================
* Model Parameters:
*   Valid Frequency Range = 0.1MHz-100MHz
*   Ambient Temperature = 25 degC
*   Inductor Frequency Model
*   Use model for Frequency Domain simulations
*======================================================================
.subckt XGL4020-601_freq port1 port2 PARAMS: Cpar=6pF Ind=0.6uH
X1 port1 port2 Model1A PARAMS:
+ R1=46.9
+ R2=0.0051
+ C= {Cpar}
+ K1=0.000001
+ K2=0.132
+ K3= {Ind}
+ K4=0.0024
+ K5=0.0006
+ L=5.721E-07
+ Is=26.157
+ a=0.6488
+ L_Z0=0
+ L_EL=0
+ L_F0=0E6
+ PkZ=769.580318
.ends XGL4020-601_freq

*======================================================================
* SPICE Model generated by Coilcraft
* Coilcraft Part Number : XGL4020-601
* Inductance = 600nH
*======================================================================
* Model Parameters:
*   Valid Frequency Range = 0.1MHz-100MHz
*   Ambient Temperature = 25 degC
*   Inductor Saturation Model
*   Use model for Time Domain simulations
*======================================================================
.subckt XGL4020-601_sat port1 port2 PARAMS: Cpar=5.74pF Ind=0.6uH
X1 port1 port2 Model1C PARAMS:
+ R1=46.9
+ R2=0.0051
+ C= {Cpar}
+ K1=0.000001
+ K2=0.132
+ K3= {Ind}
+ K4=0.0024
+ K5=0.0006
+ L=5.721E-07
+ Is=26.157
+ a=0.6488
+ L_Z0=0
+ L_EL=0
+ L_F0=0E6
+ PkZ=769.580318
.ends XGL4020-601_sat

*======================================================================
* SPICE Model generated by Coilcraft
* Coilcraft Part Number : XGL4020-821
* Inductance = 820nH
*======================================================================
* Model Parameters:
*   Valid Frequency Range = 0.1MHz-90MHz
*   Ambient Temperature = 25 degC
*   Inductor Frequency Model
*   Use model for Frequency Domain simulations
*======================================================================
.subckt XGL4020-821_freq port1 port2 PARAMS: Cpar=6.3pF Ind=0.82uH
X1 port1 port2 Model1A PARAMS:
+ R1=16.7
+ R2=0.0077
+ C= {Cpar}
+ K1=0.000001
+ K2=0.177
+ K3= {Ind}
+ K4=0.000001
+ K5=0.000001
+ L=8.681E-07
+ Is=20.3776
+ a=0.673
+ L_Z0=0
+ L_EL=0
+ L_F0=0E6
+ PkZ=1244.91253
.ends XGL4020-821_freq

*======================================================================
* SPICE Model generated by Coilcraft
* Coilcraft Part Number : XGL4020-821
* Inductance = 820nH
*======================================================================
* Model Parameters:
*   Valid Frequency Range = 0.1MHz-90MHz
*   Ambient Temperature = 25 degC
*   Inductor Saturation Model
*   Use model for Time Domain simulations
*======================================================================
.subckt XGL4020-821_sat port1 port2 PARAMS: Cpar=6.3pF Ind=0.82uH
X1 port1 port2 Model1C PARAMS:
+ R1=16.7
+ R2=0.0077
+ C= {Cpar}
+ K1=0.000001
+ K2=0.177
+ K3= {Ind}
+ K4=0.000001
+ K5=0.000001
+ L=8.681E-07
+ Is=20.3776
+ a=0.673
+ L_Z0=0
+ L_EL=0
+ L_F0=0E6
+ PkZ=1244.91253
.ends XGL4020-821_sat

*======================================================================
* SPICE Model generated by Coilcraft
* Coilcraft Part Number : XGL4020-102
* Inductance = 1uH
*======================================================================
* Model Parameters:
*   Valid Frequency Range = 0.1MHz-80MHz
*   Ambient Temperature = 25 degC
*   Inductor Frequency Model
*   Use model for Frequency Domain simulations
*======================================================================
.subckt XGL4020-102_freq port1 port2 PARAMS: Cpar=6.87pF Ind=1uH
X1 port1 port2 Model1A PARAMS:
+ R1=33.7
+ R2=0.0082
+ C= {Cpar}
+ K1=0.000001
+ K2=0.236
+ K3= {Ind}
+ K4=0.009
+ K5=0.004
+ L=9.093E-07
+ Is=18.6392
+ a=0.7005
+ L_Z0=0
+ L_EL=0
+ L_F0=0E6
+ PkZ=1271.07114
.ends XGL4020-102_freq

*======================================================================
* SPICE Model generated by Coilcraft
* Coilcraft Part Number : XGL4020-102
* Inductance = 1uH
*======================================================================
* Model Parameters:
*   Valid Frequency Range = 0.1MHz-80MHz
*   Ambient Temperature = 25 degC
*   Inductor Saturation Model
*   Use model for Time Domain simulations
*======================================================================
.subckt XGL4020-102_sat port1 port2 PARAMS: Cpar=6.103pF Ind=1uH
X1 port1 port2 Model1C PARAMS:
+ R1=33.7
+ R2=0.0082
+ C= {Cpar}
+ K1=0.000001
+ K2=0.236
+ K3= {Ind}
+ K4=0.009
+ K5=0.004
+ L=9.093E-07
+ Is=18.6392
+ a=0.7005
+ L_Z0=0
+ L_EL=0
+ L_F0=0E6
+ PkZ=1271.07114
.ends XGL4020-102_sat

*======================================================================
* SPICE Model generated by Coilcraft
* Coilcraft Part Number : XGL4020-152
* Inductance = 1.5uH
*======================================================================
* Model Parameters:
*   Valid Frequency Range = 0.1MHz-60MHz
*   Ambient Temperature = 25 degC
*   Inductor Frequency Model
*   Use model for Frequency Domain simulations
*======================================================================
.subckt XGL4020-152_freq port1 port2 PARAMS: Cpar=7.82pF Ind=1.5uH
X1 port1 port2 Model1A PARAMS:
+ R1=30
+ R2=0.013
+ C= {Cpar}
+ K1=0.000001
+ K2=0.44
+ K3= {Ind}
+ K4=0.000001
+ K5=0.000001
+ L=1.5153E-06
+ Is=16.0767
+ a=0.6532
+ L_Z0=0
+ L_EL=0
+ L_F0=0E6
+ PkZ=2044.08901
.ends XGL4020-152_freq

*======================================================================
* SPICE Model generated by Coilcraft
* Coilcraft Part Number : XGL4020-152
* Inductance = 1.5uH
*======================================================================
* Model Parameters:
*   Valid Frequency Range = 0.1MHz-60MHz
*   Ambient Temperature = 25 degC
*   Inductor Saturation Model
*   Use model for Time Domain simulations
*======================================================================
.subckt XGL4020-152_sat port1 port2 PARAMS: Cpar=7.82pF Ind=1.5uH
X1 port1 port2 Model1C PARAMS:
+ R1=30
+ R2=0.013
+ C= {Cpar}
+ K1=0.000001
+ K2=0.44
+ K3= {Ind}
+ K4=0.000001
+ K5=0.000001
+ L=1.5153E-06
+ Is=16.0767
+ a=0.6532
+ L_Z0=0
+ L_EL=0
+ L_F0=0E6
+ PkZ=2044.08901
.ends XGL4020-152_sat

*======================================================================
* SPICE Model generated by Coilcraft
* Coilcraft Part Number : XGL4020-222
* Inductance = 2.2uH
*======================================================================
* Model Parameters:
*   Valid Frequency Range = 0.1MHz-50MHz
*   Ambient Temperature = 25 degC
*   Inductor Frequency Model
*   Use model for Frequency Domain simulations
*======================================================================
.subckt XGL4020-222_freq port1 port2 PARAMS: Cpar=7.12pF Ind=2.2uH
X1 port1 port2 Model1A PARAMS:
+ R1=63
+ R2=0.0195
+ C= {Cpar}
+ K1=0.000001
+ K2=0.66
+ K3= {Ind}
+ K4=0.000001
+ K5=0.000001
+ L=2.1713E-06
+ Is=12.7372
+ a=0.685
+ L_Z0=0
+ L_EL=0
+ L_F0=0E6
+ PkZ=2268.37916
.ends XGL4020-222_freq

*======================================================================
* SPICE Model generated by Coilcraft
* Coilcraft Part Number : XGL4020-222
* Inductance = 2.2uH
*======================================================================
* Model Parameters:
*   Valid Frequency Range = 0.1MHz-50MHz
*   Ambient Temperature = 25 degC
*   Inductor Saturation Model
*   Use model for Time Domain simulations
*======================================================================
.subckt XGL4020-222_sat port1 port2 PARAMS: Cpar=7.12pF Ind=2.2uH
X1 port1 port2 Model1C PARAMS:
+ R1=63
+ R2=0.0195
+ C= {Cpar}
+ K1=0.000001
+ K2=0.66
+ K3= {Ind}
+ K4=0.000001
+ K5=0.000001
+ L=2.1713E-06
+ Is=12.7372
+ a=0.685
+ L_Z0=0
+ L_EL=0
+ L_F0=0E6
+ PkZ=2268.37916
.ends XGL4020-222_sat

*======================================================================
* SPICE Model generated by Coilcraft
* Coilcraft Part Number : XGL4020-332
* Inductance = 3.3uH
*======================================================================
* Model Parameters:
*   Valid Frequency Range = 0.1MHz-50MHz
*   Ambient Temperature = 25 degC
*   Inductor Frequency Model
*   Use model for Frequency Domain simulations
*======================================================================
.subckt XGL4020-332_freq port1 port2 PARAMS: Cpar=7.92pF Ind=3.3uH
X1 port1 port2 Model1A PARAMS:
+ R1=35.6
+ R2=0.0308
+ C= {Cpar}
+ K1=0.000001
+ K2=0.98
+ K3= {Ind}
+ K4=0.00693
+ K5=0.01
+ L=3.2133E-06
+ Is=9.9615
+ a=0.693
+ L_Z0=0
+ L_EL=0
+ L_F0=0E6
+ PkZ=3714.55476
.ends XGL4020-332_freq

*======================================================================
* SPICE Model generated by Coilcraft
* Coilcraft Part Number : XGL4020-332
* Inductance = 3.3uH
*======================================================================
* Model Parameters:
*   Valid Frequency Range = 0.1MHz-50MHz
*   Ambient Temperature = 25 degC
*   Inductor Saturation Model
*   Use model for Time Domain simulations
*======================================================================
.subckt XGL4020-332_sat port1 port2 PARAMS: Cpar=7.71pF Ind=3.3uH
X1 port1 port2 Model1C PARAMS:
+ R1=35.6
+ R2=0.0308
+ C= {Cpar}
+ K1=0.000001
+ K2=0.98
+ K3= {Ind}
+ K4=0.00693
+ K5=0.01
+ L=3.2133E-06
+ Is=9.9615
+ a=0.693
+ L_Z0=0
+ L_EL=0
+ L_F0=0E6
+ PkZ=3714.55476
.ends XGL4020-332_sat

*======================================================================
* SPICE Model generated by Coilcraft
* Coilcraft Part Number : XGL4020-472
* Inductance = 4.7uH
*======================================================================
* Model Parameters:
*   Valid Frequency Range = 0.1MHz-35MHz
*   Ambient Temperature = 25 degC
*   Inductor Frequency Model
*   Use model for Frequency Domain simulations
*======================================================================
.subckt XGL4020-472_freq port1 port2 PARAMS: Cpar=8.62pF Ind=4.7uH
X1 port1 port2 Model1A PARAMS:
+ R1=38.6
+ R2=0.043
+ C= {Cpar}
+ K1=0.000001
+ K2=1.44
+ K3= {Ind}
+ K4=0.01
+ K5=0.0001
+ L=4.7747E-06
+ Is=8.2884
+ a=0.6945
+ L_Z0=0
+ L_EL=0
+ L_F0=0E6
+ PkZ=4758.96144
.ends XGL4020-472_freq

*======================================================================
* SPICE Model generated by Coilcraft
* Coilcraft Part Number : XGL4020-472
* Inductance = 4.7uH
*======================================================================
* Model Parameters:
*   Valid Frequency Range = 0.1MHz-35MHz
*   Ambient Temperature = 25 degC
*   Inductor Saturation Model
*   Use model for Time Domain simulations
*======================================================================
.subckt XGL4020-472_sat port1 port2 PARAMS: Cpar=8.477pF Ind=4.7uH
X1 port1 port2 Model1C PARAMS:
+ R1=38.6
+ R2=0.043
+ C= {Cpar}
+ K1=0.000001
+ K2=1.44
+ K3= {Ind}
+ K4=0.01
+ K5=0.0001
+ L=4.7747E-06
+ Is=8.2884
+ a=0.6945
+ L_Z0=0
+ L_EL=0
+ L_F0=0E6
+ PkZ=4758.96144
.ends XGL4020-472_sat

*======================================================================
* SPICE Model generated by Coilcraft
* Coilcraft Part Number : XGL4020-562
* Inductance = 5.6uH
*======================================================================
* Model Parameters:
*   Valid Frequency Range = 0.1MHz-35MHz
*   Ambient Temperature = 25 degC
*   Inductor Frequency Model
*   Use model for Frequency Domain simulations
*======================================================================
.subckt XGL4020-562_freq port1 port2 PARAMS: Cpar=9pF Ind=5.6uH
X1 port1 port2 Model1A PARAMS:
+ R1=22
+ R2=0.0487
+ C= {Cpar}
+ K1=0.000001
+ K2=1.78
+ K3= {Ind}
+ K4=0.000001
+ K5=0.0013
+ L=5.6366E-06
+ Is=8.1419
+ a=0.6639
+ L_Z0=0
+ L_EL=0
+ L_F0=0E6
+ PkZ=6493.84541
.ends XGL4020-562_freq

*======================================================================
* SPICE Model generated by Coilcraft
* Coilcraft Part Number : XGL4020-562
* Inductance = 5.6uH
*======================================================================
* Model Parameters:
*   Valid Frequency Range = 0.1MHz-35MHz
*   Ambient Temperature = 25 degC
*   Inductor Saturation Model
*   Use model for Time Domain simulations
*======================================================================
.subckt XGL4020-562_sat port1 port2 PARAMS: Cpar=9pF Ind=5.6uH
X1 port1 port2 Model1C PARAMS:
+ R1=22
+ R2=0.0487
+ C= {Cpar}
+ K1=0.000001
+ K2=1.78
+ K3= {Ind}
+ K4=0.000001
+ K5=0.0013
+ L=5.6366E-06
+ Is=8.1419
+ a=0.6639
+ L_Z0=0
+ L_EL=0
+ L_F0=0E6
+ PkZ=6493.84541
.ends XGL4020-562_sat

*======================================================================
* SPICE Model generated by Coilcraft
* Coilcraft Part Number : XGL4020-682
* Inductance = 6.8uH
*======================================================================
* Model Parameters:
*   Valid Frequency Range = 0.1MHz-25MHz
*   Ambient Temperature = 25 degC
*   Inductor Frequency Model
*   Use model for Frequency Domain simulations
*======================================================================
.subckt XGL4020-682_freq port1 port2 PARAMS: Cpar=7.8pF Ind=6.8uH
X1 port1 port2 Model1A PARAMS:
+ R1=52.2
+ R2=0.0636
+ C= {Cpar}
+ K1=0.000001
+ K2=1.93
+ K3= {Ind}
+ K4=0.01
+ K5=0.000001
+ L=6.8949E-06
+ Is=7.0007
+ a=0.6674
+ L_Z0=0
+ L_EL=0
+ L_F0=0E6
+ PkZ=5857.93947
.ends XGL4020-682_freq

*======================================================================
* SPICE Model generated by Coilcraft
* Coilcraft Part Number : XGL4020-682
* Inductance = 6.8uH
*======================================================================
* Model Parameters:
*   Valid Frequency Range = 0.1MHz-25MHz
*   Ambient Temperature = 25 degC
*   Inductor Saturation Model
*   Use model for Time Domain simulations
*======================================================================
.subckt XGL4020-682_sat port1 port2 PARAMS: Cpar=7.765pF Ind=6.8uH
X1 port1 port2 Model1C PARAMS:
+ R1=52.2
+ R2=0.0636
+ C= {Cpar}
+ K1=0.000001
+ K2=1.93
+ K3= {Ind}
+ K4=0.01
+ K5=0.000001
+ L=6.8949E-06
+ Is=7.0007
+ a=0.6674
+ L_Z0=0
+ L_EL=0
+ L_F0=0E6
+ PkZ=5857.93947
.ends XGL4020-682_sat

*======================================================================
* SPICE Model generated by Coilcraft
* Coilcraft Part Number : XGL4020-822
* Inductance = 8.2uH
*======================================================================
* Model Parameters:
*   Valid Frequency Range = 0.1MHz-25MHz
*   Ambient Temperature = 25 degC
*   Inductor Frequency Model
*   Use model for Frequency Domain simulations
*======================================================================
.subckt XGL4020-822_freq port1 port2 PARAMS: Cpar=7.2pF Ind=8.2uH
X1 port1 port2 Model1A PARAMS:
+ R1=49.9
+ R2=0.071
+ C= {Cpar}
+ K1=0.000001
+ K2=3.4
+ K3= {Ind}
+ K4=0.00013
+ K5=0.000001
+ L=7.8497E-06
+ Is=6.6687
+ a=0.6562
+ L_Z0=0
+ L_EL=0
+ L_F0=0E6
+ PkZ=9227.86931
.ends XGL4020-822_freq

*======================================================================
* SPICE Model generated by Coilcraft
* Coilcraft Part Number : XGL4020-822
* Inductance = 8.2uH
*======================================================================
* Model Parameters:
*   Valid Frequency Range = 0.1MHz-25MHz
*   Ambient Temperature = 25 degC
*   Inductor Saturation Model
*   Use model for Time Domain simulations
*======================================================================
.subckt XGL4020-822_sat port1 port2 PARAMS: Cpar=7.2pF Ind=8.2uH
X1 port1 port2 Model1C PARAMS:
+ R1=49.9
+ R2=0.071
+ C= {Cpar}
+ K1=0.000001
+ K2=3.4
+ K3= {Ind}
+ K4=0.00013
+ K5=0.000001
+ L=7.8497E-06
+ Is=6.6687
+ a=0.6562
+ L_Z0=0
+ L_EL=0
+ L_F0=0E6
+ PkZ=9227.86931
.ends XGL4020-822_sat

*======================================================================
* SPICE Model generated by Coilcraft
* Coilcraft Saturation Inductor Model
*======================================================================
* Model Parameters:
*   Valid Frequency Range Varies by Inductor
*   Ambient Temperature = 25 degC
*   Current Saturable Inductor Model
*======================================================================
.subckt Model1C Lin Lout PARAMS:
+ R1=1
+ R2=1
+ C=1
+ L=1
+ Is=1
+ a=1
+ PkZ=94.2 * {L} *1e6
R2 Lin N001 {R2}
R3 N001 Lout {PkZ}
C1 N001 N002 {C}
R1 N002 Lout {R1}
L1 N001 Lout flux={L*Is}*pwrs(tanh(pwrs((x/{Is}),{a})),{1/a})
.ends Model1C





*======================================================================
* SPICE Model generated by Coilcraft
* Coilcraft Power Inductor Model
*======================================================================
* Model Parameters:
*   Valid Frequency Range Varies by Inductor
*   Ambient Temperature = 25 degC
*   DC Bias Current = 0 A
*   Frequency Dependent Inductor Model
*======================================================================
.subckt Model1A Lin Lout PARAMS:
+ R1=1
+ R2=1
+ C=1
+ K1=1
+ K2=1
+ K3=1
+ K4=1
+ K5=1
R2 N001 Lin {R2}
R1 Lout N002 {R1}
C1 N002 N001 {C}
G_Rvar2 N001 Lout LAPLACE { V(N001, Lout) } {1/K2/(-S*S/4/PI^2)^0.25}
G_Rvar1 N001 N003 LAPLACE { V(N001, N003) } {1/K1/(-S*S/4/PI^2)^0.25}
G_Lvar N003 Lout  LAPLACE { V(N003, Lout) } {1/(S*1e-6*({K3*1e6}-({K4}*LOG({K5}*(sqrt(-S*S)/(2*pi))))))}
*This large resistance to ground has been added to prevent a floating node error
R3 N003 0 100Meg
.ends Model1A


.subckt Coilcraft_Inductor Lin Lout
R1 Lout Lin 100Meg
.ends Coilcraft_Inductor
