*======================================================================
* SPICE Model generated by Coilcraft
* Coilcraft Part Number : XGL4025-131
* Inductance = 130nH
*======================================================================
* Model Parameters:
*   Valid Frequency Range = 0.1MHz-500MHz
*   Ambient Temperature = 25 degC
*   Inductor Frequency Model
*   Use model for Frequency Domain simulations
*======================================================================
.subckt XGL4025-131_freq port1 port2 PARAMS: Cpar=3.2pF Ind=0.13uH
X1 port1 port2 Model1A PARAMS:
+ R1=12
+ R2=0.0017
+ C= {Cpar}
+ K1=0.000001
+ K2=0.018
+ K3= {Ind}
+ K4=0.000001
+ K5=0.000001
+ L=1.256E-07
+ Is=45.5394
+ a=0.8235
+ L_Z0=0
+ L_EL=0
+ L_F0=0E6
+ PkZ=261.004108
.ends XGL4025-131_freq

*======================================================================
* SPICE Model generated by Coilcraft
* Coilcraft Part Number : XGL4025-131
* Inductance = 130nH
*======================================================================
* Model Parameters:
*   Valid Frequency Range = 0.1MHz-500MHz
*   Ambient Temperature = 25 degC
*   Inductor Saturation Model
*   Use model for Time Domain simulations
*======================================================================
.subckt XGL4025-131_sat port1 port2 PARAMS: Cpar=3.2pF Ind=0.13uH
X1 port1 port2 Model1C PARAMS:
+ R1=12
+ R2=0.0017
+ C= {Cpar}
+ K1=0.000001
+ K2=0.018
+ K3= {Ind}
+ K4=0.000001
+ K5=0.000001
+ L=1.256E-07
+ Is=45.5394
+ a=0.8235
+ L_Z0=0
+ L_EL=0
+ L_F0=0E6
+ PkZ=261.004108
.ends XGL4025-131_sat

*======================================================================
* SPICE Model generated by Coilcraft
* Coilcraft Part Number : XGL4025-241
* Inductance = 240nH
*======================================================================
* Model Parameters:
*   Valid Frequency Range = 0.1MHz-400MHz
*   Ambient Temperature = 25 degC
*   Inductor Frequency Model
*   Use model for Frequency Domain simulations
*======================================================================
.subckt XGL4025-241_freq port1 port2 PARAMS: Cpar=5.1pF Ind=0.24uH
X1 port1 port2 Model1A PARAMS:
+ R1=7
+ R2=0.0024
+ C= {Cpar}
+ K1=0.000001
+ K2=0.037
+ K3= {Ind}
+ K4=0.000001
+ K5=0.000001
+ L=2.357E-07
+ Is=37.9246
+ a=0.7373
+ L_Z0=0
+ L_EL=0
+ L_F0=0E6
+ PkZ=416.283689
.ends XGL4025-241_freq

*======================================================================
* SPICE Model generated by Coilcraft
* Coilcraft Part Number : XGL4025-241
* Inductance = 240nH
*======================================================================
* Model Parameters:
*   Valid Frequency Range = 0.1MHz-400MHz
*   Ambient Temperature = 25 degC
*   Inductor Saturation Model
*   Use model for Time Domain simulations
*======================================================================
.subckt XGL4025-241_sat port1 port2 PARAMS: Cpar=5.1pF Ind=0.24uH
X1 port1 port2 Model1C PARAMS:
+ R1=7
+ R2=0.0024
+ C= {Cpar}
+ K1=0.000001
+ K2=0.037
+ K3= {Ind}
+ K4=0.000001
+ K5=0.000001
+ L=2.357E-07
+ Is=37.9246
+ a=0.7373
+ L_Z0=0
+ L_EL=0
+ L_F0=0E6
+ PkZ=416.283689
.ends XGL4025-241_sat

*======================================================================
* SPICE Model generated by Coilcraft
* Coilcraft Part Number : XGL4025-331
* Inductance = 330nH
*======================================================================
* Model Parameters:
*   Valid Frequency Range = 0.1MHz-400MHz
*   Ambient Temperature = 25 degC
*   Inductor Frequency Model
*   Use model for Frequency Domain simulations
*======================================================================
.subckt XGL4025-331_freq port1 port2 PARAMS: Cpar=5.4pF Ind=0.33uH
X1 port1 port2 Model1A PARAMS:
+ R1=6
+ R2=0.0032
+ C= {Cpar}
+ K1=0.000001
+ K2=0.055
+ K3= {Ind}
+ K4=0.000001
+ K5=0.000001
+ L=3.338E-07
+ Is=35.3704
+ a=0.6934
+ L_Z0=0
+ L_EL=0
+ L_F0=0E6
+ PkZ=567.072535
.ends XGL4025-331_freq

*======================================================================
* SPICE Model generated by Coilcraft
* Coilcraft Part Number : XGL4025-331
* Inductance = 330nH
*======================================================================
* Model Parameters:
*   Valid Frequency Range = 0.1MHz-400MHz
*   Ambient Temperature = 25 degC
*   Inductor Saturation Model
*   Use model for Time Domain simulations
*======================================================================
.subckt XGL4025-331_sat port1 port2 PARAMS: Cpar=5.4pF Ind=0.33uH
X1 port1 port2 Model1C PARAMS:
+ R1=6
+ R2=0.0032
+ C= {Cpar}
+ K1=0.000001
+ K2=0.055
+ K3= {Ind}
+ K4=0.000001
+ K5=0.000001
+ L=3.338E-07
+ Is=35.3704
+ a=0.6934
+ L_Z0=0
+ L_EL=0
+ L_F0=0E6
+ PkZ=567.072535
.ends XGL4025-331_sat

*======================================================================
* SPICE Model generated by Coilcraft
* Coilcraft Part Number : XGL4025-471
* Inductance = 470nH
*======================================================================
* Model Parameters:
*   Valid Frequency Range = 0.1MHz-400MHz
*   Ambient Temperature = 25 degC
*   Inductor Frequency Model
*   Use model for Frequency Domain simulations
*======================================================================
.subckt XGL4025-471_freq port1 port2 PARAMS: Cpar=5.1pF Ind=0.47uH
X1 port1 port2 Model1A PARAMS:
+ R1=5.5
+ R2=0.0045
+ C= {Cpar}
+ K1=0.000001
+ K2=0.07
+ K3= {Ind}
+ K4=0.000001
+ K5=0.000001
+ L=4.669E-07
+ Is=25.4418
+ a=0.7811
+ L_Z0=0
+ L_EL=0
+ L_F0=0E6
+ PkZ=680.849992
.ends XGL4025-471_freq

*======================================================================
* SPICE Model generated by Coilcraft
* Coilcraft Part Number : XGL4025-471
* Inductance = 470nH
*======================================================================
* Model Parameters:
*   Valid Frequency Range = 0.1MHz-400MHz
*   Ambient Temperature = 25 degC
*   Inductor Saturation Model
*   Use model for Time Domain simulations
*======================================================================
.subckt XGL4025-471_sat port1 port2 PARAMS: Cpar=5.1pF Ind=0.47uH
X1 port1 port2 Model1C PARAMS:
+ R1=5.5
+ R2=0.0045
+ C= {Cpar}
+ K1=0.000001
+ K2=0.07
+ K3= {Ind}
+ K4=0.000001
+ K5=0.000001
+ L=4.669E-07
+ Is=25.4418
+ a=0.7811
+ L_Z0=0
+ L_EL=0
+ L_F0=0E6
+ PkZ=680.849992
.ends XGL4025-471_sat

*======================================================================
* SPICE Model generated by Coilcraft
* Coilcraft Part Number : XGL4025-561
* Inductance = 560nH
*======================================================================
* Model Parameters:
*   Valid Frequency Range = 0.1MHz-350MHz
*   Ambient Temperature = 25 degC
*   Inductor Frequency Model
*   Use model for Frequency Domain simulations
*======================================================================
.subckt XGL4025-561_freq port1 port2 PARAMS: Cpar=6.3pF Ind=0.56uH
X1 port1 port2 Model1A PARAMS:
+ R1=6
+ R2=0.0049
+ C= {Cpar}
+ K1=0.000001
+ K2=0.089
+ K3= {Ind}
+ K4=0.000001
+ K5=0.000001
+ L=5.468E-07
+ Is=26.9958
+ a=0.7134
+ L_Z0=0
+ L_EL=0
+ L_F0=0E6
+ PkZ=776.282158
.ends XGL4025-561_freq

*======================================================================
* SPICE Model generated by Coilcraft
* Coilcraft Part Number : XGL4025-561
* Inductance = 560nH
*======================================================================
* Model Parameters:
*   Valid Frequency Range = 0.1MHz-350MHz
*   Ambient Temperature = 25 degC
*   Inductor Saturation Model
*   Use model for Time Domain simulations
*======================================================================
.subckt XGL4025-561_sat port1 port2 PARAMS: Cpar=6.3pF Ind=0.56uH
X1 port1 port2 Model1C PARAMS:
+ R1=6
+ R2=0.0049
+ C= {Cpar}
+ K1=0.000001
+ K2=0.089
+ K3= {Ind}
+ K4=0.000001
+ K5=0.000001
+ L=5.468E-07
+ Is=26.9958
+ a=0.7134
+ L_Z0=0
+ L_EL=0
+ L_F0=0E6
+ PkZ=776.282158
.ends XGL4025-561_sat

*======================================================================
* SPICE Model generated by Coilcraft
* Coilcraft Part Number : XGL4025-681
* Inductance = 680nH
*======================================================================
* Model Parameters:
*   Valid Frequency Range = 0.1MHz-350MHz
*   Ambient Temperature = 25 degC
*   Inductor Frequency Model
*   Use model for Frequency Domain simulations
*======================================================================
.subckt XGL4025-681_freq port1 port2 PARAMS: Cpar=6.2pF Ind=0.68uH
X1 port1 port2 Model1A PARAMS:
+ R1=6.5
+ R2=0.0063
+ C= {Cpar}
+ K1=0.000001
+ K2=0.105
+ K3= {Ind}
+ K4=0.000001
+ K5=0.000001
+ L=6.796E-07
+ Is=21.6846
+ a=0.7753
+ L_Z0=0
+ L_EL=0
+ L_F0=0E6
+ PkZ=876.377789
.ends XGL4025-681_freq

*======================================================================
* SPICE Model generated by Coilcraft
* Coilcraft Part Number : XGL4025-681
* Inductance = 680nH
*======================================================================
* Model Parameters:
*   Valid Frequency Range = 0.1MHz-350MHz
*   Ambient Temperature = 25 degC
*   Inductor Saturation Model
*   Use model for Time Domain simulations
*======================================================================
.subckt XGL4025-681_sat port1 port2 PARAMS: Cpar=6.2pF Ind=0.68uH
X1 port1 port2 Model1C PARAMS:
+ R1=6.5
+ R2=0.0063
+ C= {Cpar}
+ K1=0.000001
+ K2=0.105
+ K3= {Ind}
+ K4=0.000001
+ K5=0.000001
+ L=6.796E-07
+ Is=21.6846
+ a=0.7753
+ L_Z0=0
+ L_EL=0
+ L_F0=0E6
+ PkZ=876.377789
.ends XGL4025-681_sat

*======================================================================
* SPICE Model generated by Coilcraft
* Coilcraft Part Number : XGL4025-821
* Inductance = 820nH
*======================================================================
* Model Parameters:
*   Valid Frequency Range = 0.1MHz-350MHz
*   Ambient Temperature = 25 degC
*   Inductor Frequency Model
*   Use model for Frequency Domain simulations
*======================================================================
.subckt XGL4025-821_freq port1 port2 PARAMS: Cpar=6.3pF Ind=0.82uH
X1 port1 port2 Model1A PARAMS:
+ R1=6.5
+ R2=0.0072
+ C= {Cpar}
+ K1=0.000001
+ K2=0.13
+ K3= {Ind}
+ K4=0.000001
+ K5=0.000001
+ L=8.489E-07
+ Is=20.2676
+ a=0.7654
+ L_Z0=0
+ L_EL=0
+ L_F0=0E6
+ PkZ=1031.74355
.ends XGL4025-821_freq

*======================================================================
* SPICE Model generated by Coilcraft
* Coilcraft Part Number : XGL4025-821
* Inductance = 820nH
*======================================================================
* Model Parameters:
*   Valid Frequency Range = 0.1MHz-350MHz
*   Ambient Temperature = 25 degC
*   Inductor Saturation Model
*   Use model for Time Domain simulations
*======================================================================
.subckt XGL4025-821_sat port1 port2 PARAMS: Cpar=6.3pF Ind=0.82uH
X1 port1 port2 Model1C PARAMS:
+ R1=6.5
+ R2=0.0072
+ C= {Cpar}
+ K1=0.000001
+ K2=0.13
+ K3= {Ind}
+ K4=0.000001
+ K5=0.000001
+ L=8.489E-07
+ Is=20.2676
+ a=0.7654
+ L_Z0=0
+ L_EL=0
+ L_F0=0E6
+ PkZ=1031.74355
.ends XGL4025-821_sat

*======================================================================
* SPICE Model generated by Coilcraft
* Coilcraft Part Number : XGL4025-901
* Inductance = 900nH
*======================================================================
* Model Parameters:
*   Valid Frequency Range = 0.1MHz-300MHz
*   Ambient Temperature = 25 degC
*   Inductor Frequency Model
*   Use model for Frequency Domain simulations
*======================================================================
.subckt XGL4025-901_freq port1 port2 PARAMS: Cpar=6.8pF Ind=0.9uH
X1 port1 port2 Model1A PARAMS:
+ R1=7
+ R2=0.0074
+ C= {Cpar}
+ K1=0.000001
+ K2=0.142
+ K3= {Ind}
+ K4=0.000001
+ K5=0.000001
+ L=9.122E-07
+ Is=18.7108
+ a=0.7841
+ L_Z0=0
+ L_EL=0
+ L_F0=0E6
+ PkZ=1074.21419
.ends XGL4025-901_freq

*======================================================================
* SPICE Model generated by Coilcraft
* Coilcraft Part Number : XGL4025-901
* Inductance = 900nH
*======================================================================
* Model Parameters:
*   Valid Frequency Range = 0.1MHz-300MHz
*   Ambient Temperature = 25 degC
*   Inductor Saturation Model
*   Use model for Time Domain simulations
*======================================================================
.subckt XGL4025-901_sat port1 port2 PARAMS: Cpar=6.8pF Ind=0.9uH
X1 port1 port2 Model1C PARAMS:
+ R1=7
+ R2=0.0074
+ C= {Cpar}
+ K1=0.000001
+ K2=0.142
+ K3= {Ind}
+ K4=0.000001
+ K5=0.000001
+ L=9.122E-07
+ Is=18.7108
+ a=0.7841
+ L_Z0=0
+ L_EL=0
+ L_F0=0E6
+ PkZ=1074.21419
.ends XGL4025-901_sat

*======================================================================
* SPICE Model generated by Coilcraft
* Coilcraft Part Number : XGL4025-102
* Inductance = 1uH
*======================================================================
* Model Parameters:
*   Valid Frequency Range = 0.1MHz-300MHz
*   Ambient Temperature = 25 degC
*   Inductor Frequency Model
*   Use model for Frequency Domain simulations
*======================================================================
.subckt XGL4025-102_freq port1 port2 PARAMS: Cpar=6.5pF Ind=1uH
X1 port1 port2 Model1A PARAMS:
+ R1=5.5
+ R2=0.0085
+ C= {Cpar}
+ K1=0.000001
+ K2=0.152
+ K3= {Ind}
+ K4=0.000001
+ K5=0.000001
+ L=1.0194E-06
+ Is=16.594
+ a=0.7985
+ L_Z0=0
+ L_EL=0
+ L_F0=0E6
+ PkZ=1151.46253
.ends XGL4025-102_freq

*======================================================================
* SPICE Model generated by Coilcraft
* Coilcraft Part Number : XGL4025-102
* Inductance = 1uH
*======================================================================
* Model Parameters:
*   Valid Frequency Range = 0.1MHz-300MHz
*   Ambient Temperature = 25 degC
*   Inductor Saturation Model
*   Use model for Time Domain simulations
*======================================================================
.subckt XGL4025-102_sat port1 port2 PARAMS: Cpar=6.5pF Ind=1uH
X1 port1 port2 Model1C PARAMS:
+ R1=5.5
+ R2=0.0085
+ C= {Cpar}
+ K1=0.000001
+ K2=0.152
+ K3= {Ind}
+ K4=0.000001
+ K5=0.000001
+ L=1.0194E-06
+ Is=16.594
+ a=0.7985
+ L_Z0=0
+ L_EL=0
+ L_F0=0E6
+ PkZ=1151.46253
.ends XGL4025-102_sat

*======================================================================
* SPICE Model generated by Coilcraft
* Coilcraft Part Number : XGL4025-122
* Inductance = 1.2uH
*======================================================================
* Model Parameters:
*   Valid Frequency Range = 0.1MHz-300MHz
*   Ambient Temperature = 25 degC
*   Inductor Frequency Model
*   Use model for Frequency Domain simulations
*======================================================================
.subckt XGL4025-122_freq port1 port2 PARAMS: Cpar=7.4pF Ind=1.2uH
X1 port1 port2 Model1A PARAMS:
+ R1=6
+ R2=0.01
+ C= {Cpar}
+ K1=0.000001
+ K2=0.204
+ K3= {Ind}
+ K4=0.000001
+ K5=0.000001
+ L=1.2558E-06
+ Is=15.8662
+ a=0.7845
+ L_Z0=0
+ L_EL=0
+ L_F0=0E6
+ PkZ=1412.85798
.ends XGL4025-122_freq

*======================================================================
* SPICE Model generated by Coilcraft
* Coilcraft Part Number : XGL4025-122
* Inductance = 1.2uH
*======================================================================
* Model Parameters:
*   Valid Frequency Range = 0.1MHz-300MHz
*   Ambient Temperature = 25 degC
*   Inductor Saturation Model
*   Use model for Time Domain simulations
*======================================================================
.subckt XGL4025-122_sat port1 port2 PARAMS: Cpar=7.4pF Ind=1.2uH
X1 port1 port2 Model1C PARAMS:
+ R1=6
+ R2=0.01
+ C= {Cpar}
+ K1=0.000001
+ K2=0.204
+ K3= {Ind}
+ K4=0.000001
+ K5=0.000001
+ L=1.2558E-06
+ Is=15.8662
+ a=0.7845
+ L_Z0=0
+ L_EL=0
+ L_F0=0E6
+ PkZ=1412.85798
.ends XGL4025-122_sat

*======================================================================
* SPICE Model generated by Coilcraft
* Coilcraft Part Number : XGL4025-152
* Inductance = 1.5uH
*======================================================================
* Model Parameters:
*   Valid Frequency Range = 0.1MHz-250MHz
*   Ambient Temperature = 25 degC
*   Inductor Frequency Model
*   Use model for Frequency Domain simulations
*======================================================================
.subckt XGL4025-152_freq port1 port2 PARAMS: Cpar=6.7pF Ind=1.5uH
X1 port1 port2 Model1A PARAMS:
+ R1=6
+ R2=0.012
+ C= {Cpar}
+ K1=0.000001
+ K2=0.228
+ K3= {Ind}
+ K4=0.000001
+ K5=0.000001
+ L=1.5125E-06
+ Is=14.5034
+ a=0.7707
+ L_Z0=0
+ L_EL=0
+ L_F0=0E6
+ PkZ=1548.39371
.ends XGL4025-152_freq

*======================================================================
* SPICE Model generated by Coilcraft
* Coilcraft Part Number : XGL4025-152
* Inductance = 1.5uH
*======================================================================
* Model Parameters:
*   Valid Frequency Range = 0.1MHz-250MHz
*   Ambient Temperature = 25 degC
*   Inductor Saturation Model
*   Use model for Time Domain simulations
*======================================================================
.subckt XGL4025-152_sat port1 port2 PARAMS: Cpar=6.7pF Ind=1.5uH
X1 port1 port2 Model1C PARAMS:
+ R1=6
+ R2=0.012
+ C= {Cpar}
+ K1=0.000001
+ K2=0.228
+ K3= {Ind}
+ K4=0.000001
+ K5=0.000001
+ L=1.5125E-06
+ Is=14.5034
+ a=0.7707
+ L_Z0=0
+ L_EL=0
+ L_F0=0E6
+ PkZ=1548.39371
.ends XGL4025-152_sat

*======================================================================
* SPICE Model generated by Coilcraft
* Coilcraft Part Number : XGL4025-182
* Inductance = 1.8uH
*======================================================================
* Model Parameters:
*   Valid Frequency Range = 0.1MHz-250MHz
*   Ambient Temperature = 25 degC
*   Inductor Frequency Model
*   Use model for Frequency Domain simulations
*======================================================================
.subckt XGL4025-182_freq port1 port2 PARAMS: Cpar=5.9pF Ind=1.8uH
X1 port1 port2 Model1A PARAMS:
+ R1=5.5
+ R2=0.0145
+ C= {Cpar}
+ K1=0.000001
+ K2=0.273
+ K3= {Ind}
+ K4=0.000001
+ K5=0.000001
+ L=1.6934E-06
+ Is=12.0698
+ a=0.8567
+ L_Z0=0
+ L_EL=0
+ L_F0=0E6
+ PkZ=1844.34526
.ends XGL4025-182_freq

*======================================================================
* SPICE Model generated by Coilcraft
* Coilcraft Part Number : XGL4025-182
* Inductance = 1.8uH
*======================================================================
* Model Parameters:
*   Valid Frequency Range = 0.1MHz-250MHz
*   Ambient Temperature = 25 degC
*   Inductor Saturation Model
*   Use model for Time Domain simulations
*======================================================================
.subckt XGL4025-182_sat port1 port2 PARAMS: Cpar=5.9pF Ind=1.8uH
X1 port1 port2 Model1C PARAMS:
+ R1=5.5
+ R2=0.0145
+ C= {Cpar}
+ K1=0.000001
+ K2=0.273
+ K3= {Ind}
+ K4=0.000001
+ K5=0.000001
+ L=1.6934E-06
+ Is=12.0698
+ a=0.8567
+ L_Z0=0
+ L_EL=0
+ L_F0=0E6
+ PkZ=1844.34526
.ends XGL4025-182_sat

*======================================================================
* SPICE Model generated by Coilcraft
* Coilcraft Part Number : XGL4025-222
* Inductance = 2.2uH
*======================================================================
* Model Parameters:
*   Valid Frequency Range = 0.1MHz-250MHz
*   Ambient Temperature = 25 degC
*   Inductor Frequency Model
*   Use model for Frequency Domain simulations
*======================================================================
.subckt XGL4025-222_freq port1 port2 PARAMS: Cpar=6.8pF Ind=2.2uH
X1 port1 port2 Model1A PARAMS:
+ R1=5.5
+ R2=0.0169
+ C= {Cpar}
+ K1=0.000001
+ K2=0.342
+ K3= {Ind}
+ K4=0.000001
+ K5=0.000001
+ L=2.0906E-06
+ Is=11.7227
+ a=0.7939
+ L_Z0=0
+ L_EL=0
+ L_F0=0E6
+ PkZ=2114.88996
.ends XGL4025-222_freq

*======================================================================
* SPICE Model generated by Coilcraft
* Coilcraft Part Number : XGL4025-222
* Inductance = 2.2uH
*======================================================================
* Model Parameters:
*   Valid Frequency Range = 0.1MHz-250MHz
*   Ambient Temperature = 25 degC
*   Inductor Saturation Model
*   Use model for Time Domain simulations
*======================================================================
.subckt XGL4025-222_sat port1 port2 PARAMS: Cpar=6.8pF Ind=2.2uH
X1 port1 port2 Model1C PARAMS:
+ R1=5.5
+ R2=0.0169
+ C= {Cpar}
+ K1=0.000001
+ K2=0.342
+ K3= {Ind}
+ K4=0.000001
+ K5=0.000001
+ L=2.0906E-06
+ Is=11.7227
+ a=0.7939
+ L_Z0=0
+ L_EL=0
+ L_F0=0E6
+ PkZ=2114.88996
.ends XGL4025-222_sat

*======================================================================
* SPICE Model generated by Coilcraft
* Coilcraft Part Number : XGL4025-332
* Inductance = 3.3uH
*======================================================================
* Model Parameters:
*   Valid Frequency Range = 0.1MHz-200MHz
*   Ambient Temperature = 25 degC
*   Inductor Frequency Model
*   Use model for Frequency Domain simulations
*======================================================================
.subckt XGL4025-332_freq port1 port2 PARAMS: Cpar=6.7pF Ind=3.3uH
X1 port1 port2 Model1A PARAMS:
+ R1=5.5
+ R2=0.027
+ C= {Cpar}
+ K1=0.000001
+ K2=0.55
+ K3= {Ind}
+ K4=0.000001
+ K5=0.000001
+ L=3.2861E-06
+ Is=9.2562
+ a=0.7729
+ L_Z0=0
+ L_EL=0
+ L_F0=0E6
+ PkZ=3089.35208
.ends XGL4025-332_freq

*======================================================================
* SPICE Model generated by Coilcraft
* Coilcraft Part Number : XGL4025-332
* Inductance = 3.3uH
*======================================================================
* Model Parameters:
*   Valid Frequency Range = 0.1MHz-200MHz
*   Ambient Temperature = 25 degC
*   Inductor Saturation Model
*   Use model for Time Domain simulations
*======================================================================
.subckt XGL4025-332_sat port1 port2 PARAMS: Cpar=6.7pF Ind=3.3uH
X1 port1 port2 Model1C PARAMS:
+ R1=5.5
+ R2=0.027
+ C= {Cpar}
+ K1=0.000001
+ K2=0.55
+ K3= {Ind}
+ K4=0.000001
+ K5=0.000001
+ L=3.2861E-06
+ Is=9.2562
+ a=0.7729
+ L_Z0=0
+ L_EL=0
+ L_F0=0E6
+ PkZ=3089.35208
.ends XGL4025-332_sat

*======================================================================
* SPICE Model generated by Coilcraft
* Coilcraft Part Number : XGL4025-472
* Inductance = 4.7uH
*======================================================================
* Model Parameters:
*   Valid Frequency Range = 0.1MHz-200MHz
*   Ambient Temperature = 25 degC
*   Inductor Frequency Model
*   Use model for Frequency Domain simulations
*======================================================================
.subckt XGL4025-472_freq port1 port2 PARAMS: Cpar=6.3pF Ind=4.7uH
X1 port1 port2 Model1A PARAMS:
+ R1=5.5
+ R2=0.0395
+ C= {Cpar}
+ K1=0.000001
+ K2=0.773
+ K3= {Ind}
+ K4=0.000001
+ K5=0.000001
+ L=4.8835E-06
+ Is=7.82
+ a=0.799
+ L_Z0=0
+ L_EL=0
+ L_F0=0E6
+ PkZ=4055.45034
.ends XGL4025-472_freq

*======================================================================
* SPICE Model generated by Coilcraft
* Coilcraft Part Number : XGL4025-472
* Inductance = 4.7uH
*======================================================================
* Model Parameters:
*   Valid Frequency Range = 0.1MHz-200MHz
*   Ambient Temperature = 25 degC
*   Inductor Saturation Model
*   Use model for Time Domain simulations
*======================================================================
.subckt XGL4025-472_sat port1 port2 PARAMS: Cpar=6.3pF Ind=4.7uH
X1 port1 port2 Model1C PARAMS:
+ R1=5.5
+ R2=0.0395
+ C= {Cpar}
+ K1=0.000001
+ K2=0.773
+ K3= {Ind}
+ K4=0.000001
+ K5=0.000001
+ L=4.8835E-06
+ Is=7.82
+ a=0.799
+ L_Z0=0
+ L_EL=0
+ L_F0=0E6
+ PkZ=4055.45034
.ends XGL4025-472_sat

*======================================================================
* SPICE Model generated by Coilcraft
* Coilcraft Part Number : XGL4025-562
* Inductance = 5.6uH
*======================================================================
* Model Parameters:
*   Valid Frequency Range = 0.1MHz-200MHz
*   Ambient Temperature = 25 degC
*   Inductor Frequency Model
*   Use model for Frequency Domain simulations
*======================================================================
.subckt XGL4025-562_freq port1 port2 PARAMS: Cpar=7.6pF Ind=5.6uH
X1 port1 port2 Model1A PARAMS:
+ R1=6
+ R2=0.0479
+ C= {Cpar}
+ K1=0.000001
+ K2=0.931
+ K3= {Ind}
+ K4=0.000001
+ K5=0.000001
+ L=5.5213E-06
+ Is=7.1147
+ a=0.7838
+ L_Z0=0
+ L_EL=0
+ L_F0=0E6
+ PkZ=4432.38146
.ends XGL4025-562_freq

*======================================================================
* SPICE Model generated by Coilcraft
* Coilcraft Part Number : XGL4025-562
* Inductance = 5.6uH
*======================================================================
* Model Parameters:
*   Valid Frequency Range = 0.1MHz-200MHz
*   Ambient Temperature = 25 degC
*   Inductor Saturation Model
*   Use model for Time Domain simulations
*======================================================================
.subckt XGL4025-562_sat port1 port2 PARAMS: Cpar=7.6pF Ind=5.6uH
X1 port1 port2 Model1C PARAMS:
+ R1=6
+ R2=0.0479
+ C= {Cpar}
+ K1=0.000001
+ K2=0.931
+ K3= {Ind}
+ K4=0.000001
+ K5=0.000001
+ L=5.5213E-06
+ Is=7.1147
+ a=0.7838
+ L_Z0=0
+ L_EL=0
+ L_F0=0E6
+ PkZ=4432.38146
.ends XGL4025-562_sat

*======================================================================
* SPICE Model generated by Coilcraft
* Coilcraft Part Number : XGL4025-682
* Inductance = 6.8uH
*======================================================================
* Model Parameters:
*   Valid Frequency Range = 0.1MHz-200MHz
*   Ambient Temperature = 25 degC
*   Inductor Frequency Model
*   Use model for Frequency Domain simulations
*======================================================================
.subckt XGL4025-682_freq port1 port2 PARAMS: Cpar=7.2pF Ind=6.8uH
X1 port1 port2 Model1A PARAMS:
+ R1=6
+ R2=0.0587
+ C= {Cpar}
+ K1=0.000001
+ K2=1.19
+ K3= {Ind}
+ K4=0.000001
+ K5=0.000001
+ L=6.5902E-06
+ Is=6.2808
+ a=0.8115
+ L_Z0=0
+ L_EL=0
+ L_F0=0E6
+ PkZ=5477.80922
.ends XGL4025-682_freq

*======================================================================
* SPICE Model generated by Coilcraft
* Coilcraft Part Number : XGL4025-682
* Inductance = 6.8uH
*======================================================================
* Model Parameters:
*   Valid Frequency Range = 0.1MHz-200MHz
*   Ambient Temperature = 25 degC
*   Inductor Saturation Model
*   Use model for Time Domain simulations
*======================================================================
.subckt XGL4025-682_sat port1 port2 PARAMS: Cpar=7.2pF Ind=6.8uH
X1 port1 port2 Model1C PARAMS:
+ R1=6
+ R2=0.0587
+ C= {Cpar}
+ K1=0.000001
+ K2=1.19
+ K3= {Ind}
+ K4=0.000001
+ K5=0.000001
+ L=6.5902E-06
+ Is=6.2808
+ a=0.8115
+ L_Z0=0
+ L_EL=0
+ L_F0=0E6
+ PkZ=5477.80922
.ends XGL4025-682_sat

*======================================================================
* SPICE Model generated by Coilcraft
* Coilcraft Part Number : XGL4025-822
* Inductance = 8.2uH
*======================================================================
* Model Parameters:
*   Valid Frequency Range = 0.1MHz-200MHz
*   Ambient Temperature = 25 degC
*   Inductor Frequency Model
*   Use model for Frequency Domain simulations
*======================================================================
.subckt XGL4025-822_freq port1 port2 PARAMS: Cpar=7pF Ind=8.2uH
X1 port1 port2 Model1A PARAMS:
+ R1=6
+ R2=0.076
+ C= {Cpar}
+ K1=0.000001
+ K2=1.45
+ K3= {Ind}
+ K4=0.000001
+ K5=0.000001
+ L=7.891E-06
+ Is=5.8039
+ a=0.8211
+ L_Z0=0
+ L_EL=0
+ L_F0=0E6
+ PkZ=6426.98918
.ends XGL4025-822_freq

*======================================================================
* SPICE Model generated by Coilcraft
* Coilcraft Part Number : XGL4025-822
* Inductance = 8.2uH
*======================================================================
* Model Parameters:
*   Valid Frequency Range = 0.1MHz-200MHz
*   Ambient Temperature = 25 degC
*   Inductor Saturation Model
*   Use model for Time Domain simulations
*======================================================================
.subckt XGL4025-822_sat port1 port2 PARAMS: Cpar=7pF Ind=8.2uH
X1 port1 port2 Model1C PARAMS:
+ R1=6
+ R2=0.076
+ C= {Cpar}
+ K1=0.000001
+ K2=1.45
+ K3= {Ind}
+ K4=0.000001
+ K5=0.000001
+ L=7.891E-06
+ Is=5.8039
+ a=0.8211
+ L_Z0=0
+ L_EL=0
+ L_F0=0E6
+ PkZ=6426.98918
.ends XGL4025-822_sat

*======================================================================
* SPICE Model generated by Coilcraft
* Coilcraft Part Number : XGL4025-103
* Inductance = 10uH
*======================================================================
* Model Parameters:
*   Valid Frequency Range = 0.1MHz-200MHz
*   Ambient Temperature = 25 degC
*   Inductor Frequency Model
*   Use model for Frequency Domain simulations
*======================================================================
.subckt XGL4025-103_freq port1 port2 PARAMS: Cpar=7.6pF Ind=10uH
X1 port1 port2 Model1A PARAMS:
+ R1=6.5
+ R2=0.0892
+ C= {Cpar}
+ K1=0.000001
+ K2=1.66
+ K3= {Ind}
+ K4=0.000001
+ K5=0.000001
+ L=9.7747E-06
+ Is=5.7315
+ a=0.7677
+ L_Z0=0