*======================================================================
* SPICE Model generated by Coilcraft
* Coilcraft Part Number : XGL5050-161
* Inductance = 160nH
*======================================================================
* Model Parameters:
*   Valid Frequency Range = 0.1MHz-350MHz
*   Ambient Temperature = 25 degC
*   Inductor Frequency Model
*   Use model for Frequency Domain simulations
*======================================================================
.subckt XGL5050-161_freq port1 port2 PARAMS: Cpar=5.4pF Ind=0.16uH
X1 port1 port2 Model1A PARAMS:
+ R1=7
+ R2=0.0015
+ C= {Cpar}
+ K1=0.000001
+ K2=0.023
+ K3= {Ind}
+ K4=0.000001
+ K5=0.000001
+ L=1.612E-07
+ Is=62.2545
+ a=0.7814
+ L_Z0=0
+ L_EL=0
+ L_F0=0E6
+ PkZ=280.980028
.ends XGL5050-161_freq

*======================================================================
* SPICE Model generated by Coilcraft
* Coilcraft Part Number : XGL5050-161
* Inductance = 160nH
*======================================================================
* Model Parameters:
*   Valid Frequency Range = 0.1MHz-350MHz
*   Ambient Temperature = 25 degC
*   Inductor Saturation Model
*   Use model for Time Domain simulations
*======================================================================
.subckt XGL5050-161_sat port1 port2 PARAMS: Cpar=5.4pF Ind=0.16uH
X1 port1 port2 Model1C PARAMS:
+ R1=7
+ R2=0.0015
+ C= {Cpar}
+ K1=0.000001
+ K2=0.023
+ K3= {Ind}
+ K4=0.000001
+ K5=0.000001
+ L=1.612E-07
+ Is=62.2545
+ a=0.7814
+ L_Z0=0
+ L_EL=0
+ L_F0=0E6
+ PkZ=280.980028
.ends XGL5050-161_sat

*======================================================================
* SPICE Model generated by Coilcraft
* Coilcraft Part Number : XGL5050-331
* Inductance = 330nH
*======================================================================
* Model Parameters:
*   Valid Frequency Range = 0.1MHz-200MHz
*   Ambient Temperature = 25 degC
*   Inductor Frequency Model
*   Use model for Frequency Domain simulations
*======================================================================
.subckt XGL5050-331_freq port1 port2 PARAMS: Cpar=7.8pF Ind=0.33uH
X1 port1 port2 Model1A PARAMS:
+ R1=5
+ R2=0.002
+ C= {Cpar}
+ K1=0.000001
+ K2=0.055
+ K3= {Ind}
+ K4=0.000001
+ K5=0.000001
+ L=3.188E-07
+ Is=46.2945
+ a=0.774
+ L_Z0=0
+ L_EL=0
+ L_F0=0E6
+ PkZ=514.449082
.ends XGL5050-331_freq

*======================================================================
* SPICE Model generated by Coilcraft
* Coilcraft Part Number : XGL5050-331
* Inductance = 330nH
*======================================================================
* Model Parameters:
*   Valid Frequency Range = 0.1MHz-200MHz
*   Ambient Temperature = 25 degC
*   Inductor Saturation Model
*   Use model for Time Domain simulations
*======================================================================
.subckt XGL5050-331_sat port1 port2 PARAMS: Cpar=7.8pF Ind=0.33uH
X1 port1 port2 Model1C PARAMS:
+ R1=5
+ R2=0.002
+ C= {Cpar}
+ K1=0.000001
+ K2=0.055
+ K3= {Ind}
+ K4=0.000001
+ K5=0.000001
+ L=3.188E-07
+ Is=46.2945
+ a=0.774
+ L_Z0=0
+ L_EL=0
+ L_F0=0E6
+ PkZ=514.449082
.ends XGL5050-331_sat

*======================================================================
* SPICE Model generated by Coilcraft
* Coilcraft Part Number : XGL5050-501
* Inductance = 500nH
*======================================================================
* Model Parameters:
*   Valid Frequency Range = 0.1MHz-200MHz
*   Ambient Temperature = 25 degC
*   Inductor Frequency Model
*   Use model for Frequency Domain simulations
*======================================================================
.subckt XGL5050-501_freq port1 port2 PARAMS: Cpar=7pF Ind=0.5uH
X1 port1 port2 Model1A PARAMS:
+ R1=4.6
+ R2=0.0027
+ C= {Cpar}
+ K1=0.000001
+ K2=0.08
+ K3= {Ind}
+ K4=0.000001
+ K5=0.000001
+ L=4.939E-07
+ Is=36.6013
+ a=0.8005
+ L_Z0=0
+ L_EL=0
+ L_F0=0E6
+ PkZ=704.351868
.ends XGL5050-501_freq

*======================================================================
* SPICE Model generated by Coilcraft
* Coilcraft Part Number : XGL5050-501
* Inductance = 500nH
*======================================================================
* Model Parameters:
*   Valid Frequency Range = 0.1MHz-200MHz
*   Ambient Temperature = 25 degC
*   Inductor Saturation Model
*   Use model for Time Domain simulations
*======================================================================
.subckt XGL5050-501_sat port1 port2 PARAMS: Cpar=7pF Ind=0.5uH
X1 port1 port2 Model1C PARAMS:
+ R1=4.6
+ R2=0.0027
+ C= {Cpar}
+ K1=0.000001
+ K2=0.08
+ K3= {Ind}
+ K4=0.000001
+ K5=0.000001
+ L=4.939E-07
+ Is=36.6013
+ a=0.8005
+ L_Z0=0
+ L_EL=0
+ L_F0=0E6
+ PkZ=704.351868
.ends XGL5050-501_sat

*======================================================================
* SPICE Model generated by Coilcraft
* Coilcraft Part Number : XGL5050-561
* Inductance = 560nH
*======================================================================
* Model Parameters:
*   Valid Frequency Range = 0.1MHz-200MHz
*   Ambient Temperature = 25 degC
*   Inductor Frequency Model
*   Use model for Frequency Domain simulations
*======================================================================
.subckt XGL5050-561_freq port1 port2 PARAMS: Cpar=6.4pF Ind=0.56uH
X1 port1 port2 Model1A PARAMS:
+ R1=4.8
+ R2=0.003
+ C= {Cpar}
+ K1=0.000001
+ K2=0.088
+ K3= {Ind}
+ K4=0.000001
+ K5=0.000001
+ L=5.315E-07
+ Is=36.3446
+ a=0.7605
+ L_Z0=0
+ L_EL=0
+ L_F0=0E6
+ PkZ=772.61491
.ends XGL5050-561_freq

*======================================================================
* SPICE Model generated by Coilcraft
* Coilcraft Part Number : XGL5050-561
* Inductance = 560nH
*======================================================================
* Model Parameters:
*   Valid Frequency Range = 0.1MHz-200MHz
*   Ambient Temperature = 25 degC
*   Inductor Saturation Model
*   Use model for Time Domain simulations
*======================================================================
.subckt XGL5050-561_sat port1 port2 PARAMS: Cpar=6.4pF Ind=0.56uH
X1 port1 port2 Model1C PARAMS:
+ R1=4.8
+ R2=0.003
+ C= {Cpar}
+ K1=0.000001
+ K2=0.088
+ K3= {Ind}
+ K4=0.000001
+ K5=0.000001
+ L=5.315E-07
+ Is=36.3446
+ a=0.7605
+ L_Z0=0
+ L_EL=0
+ L_F0=0E6
+ PkZ=772.61491
.ends XGL5050-561_sat

*======================================================================
* SPICE Model generated by Coilcraft
* Coilcraft Part Number : XGL5050-721
* Inductance = 720nH
*======================================================================
* Model Parameters:
*   Valid Frequency Range = 0.1MHz-200MHz
*   Ambient Temperature = 25 degC
*   Inductor Frequency Model
*   Use model for Frequency Domain simulations
*======================================================================
.subckt XGL5050-721_freq port1 port2 PARAMS: Cpar=8.2pF Ind=0.72uH
X1 port1 port2 Model1A PARAMS:
+ R1=4.7
+ R2=0.0033
+ C= {Cpar}
+ K1=0.000001
+ K2=0.12
+ K3= {Ind}
+ K4=0.000001
+ K5=0.000001
+ L=7.203E-07
+ Is=31.1638
+ a=0.8337
+ L_Z0=0
+ L_EL=0
+ L_F0=0E6
+ PkZ=923.135013
.ends XGL5050-721_freq

*======================================================================
* SPICE Model generated by Coilcraft
* Coilcraft Part Number : XGL5050-721
* Inductance = 720nH
*======================================================================
* Model Parameters:
*   Valid Frequency Range = 0.1MHz-200MHz
*   Ambient Temperature = 25 degC
*   Inductor Saturation Model
*   Use model for Time Domain simulations
*======================================================================
.subckt XGL5050-721_sat port1 port2 PARAMS: Cpar=8.2pF Ind=0.72uH
X1 port1 port2 Model1C PARAMS:
+ R1=4.7
+ R2=0.0033
+ C= {Cpar}
+ K1=0.000001
+ K2=0.12
+ K3= {Ind}
+ K4=0.000001
+ K5=0.000001
+ L=7.203E-07
+ Is=31.1638
+ a=0.8337
+ L_Z0=0
+ L_EL=0
+ L_F0=0E6
+ PkZ=923.135013
.ends XGL5050-721_sat

*======================================================================
* SPICE Model generated by Coilcraft
* Coilcraft Part Number : XGL5050-821
* Inductance = 820nH
*======================================================================
* Model Parameters:
*   Valid Frequency Range = 0.1MHz-200MHz
*   Ambient Temperature = 25 degC
*   Inductor Frequency Model
*   Use model for Frequency Domain simulations
*======================================================================
.subckt XGL5050-821_freq port1 port2 PARAMS: Cpar=5.4pF Ind=0.82uH
X1 port1 port2 Model1A PARAMS:
+ R1=4.2
+ R2=0.0035
+ C= {Cpar}
+ K1=0.000001
+ K2=0.12
+ K3= {Ind}
+ K4=0.000001
+ K5=0.000001
+ L=7.459E-07
+ Is=29.4366
+ a=0.8169
+ L_Z0=0
+ L_EL=0
+ L_F0=0E6
+ PkZ=1014.28326
.ends XGL5050-821_freq

*======================================================================
* SPICE Model generated by Coilcraft
* Coilcraft Part Number : XGL5050-821
* Inductance = 820nH
*======================================================================
* Model Parameters:
*   Valid Frequency Range = 0.1MHz-200MHz
*   Ambient Temperature = 25 degC
*   Inductor Saturation Model
*   Use model for Time Domain simulations
*======================================================================
.subckt XGL5050-821_sat port1 port2 PARAMS: Cpar=5.4pF Ind=0.82uH
X1 port1 port2 Model1C PARAMS:
+ R1=4.2
+ R2=0.0035
+ C= {Cpar}
+ K1=0.000001
+ K2=0.12
+ K3= {Ind}
+ K4=0.000001
+ K5=0.000001
+ L=7.459E-07
+ Is=29.4366
+ a=0.8169
+ L_Z0=0
+ L_EL=0
+ L_F0=0E6
+ PkZ=1014.28326
.ends XGL5050-821_sat

*======================================================================
* SPICE Model generated by Coilcraft
* Coilcraft Part Number : XGL5050-102
* Inductance = 1uH
*======================================================================
* Model Parameters:
*   Valid Frequency Range = 0.1MHz-150MHz
*   Ambient Temperature = 25 degC
*   Inductor Frequency Model
*   Use model for Frequency Domain simulations
*======================================================================
.subckt XGL5050-102_freq port1 port2 PARAMS: Cpar=5.6pF Ind=1uH
X1 port1 port2 Model1A PARAMS:
+ R1=1.2
+ R2=0.0039
+ C= {Cpar}
+ K1=0.000001
+ K2=0.14
+ K3= {Ind}
+ K4=0.000001
+ K5=0.000001
+ L=9.193E-07
+ Is=28.4725
+ a=0.8294
+ L_Z0=0
+ L_EL=0
+ L_F0=0E6
+ PkZ=1139.28509
.ends XGL5050-102_freq

*======================================================================
* SPICE Model generated by Coilcraft
* Coilcraft Part Number : XGL5050-102
* Inductance = 1uH
*======================================================================
* Model Parameters:
*   Valid Frequency Range = 0.1MHz-150MHz
*   Ambient Temperature = 25 degC
*   Inductor Saturation Model
*   Use model for Time Domain simulations
*======================================================================
.subckt XGL5050-102_sat port1 port2 PARAMS: Cpar=5.6pF Ind=1uH
X1 port1 port2 Model1C PARAMS:
+ R1=1.2
+ R2=0.0039
+ C= {Cpar}
+ K1=0.000001
+ K2=0.14
+ K3= {Ind}
+ K4=0.000001
+ K5=0.000001
+ L=9.193E-07
+ Is=28.4725
+ a=0.8294
+ L_Z0=0
+ L_EL=0
+ L_F0=0E6
+ PkZ=1139.28509
.ends XGL5050-102_sat

*======================================================================
* SPICE Model generated by Coilcraft
* Coilcraft Part Number : XGL5050-122
* Inductance = 1.2uH
*======================================================================
* Model Parameters:
*   Valid Frequency Range = 0.1MHz-150MHz
*   Ambient Temperature = 25 degC
*   Inductor Frequency Model
*   Use model for Frequency Domain simulations
*======================================================================
.subckt XGL5050-122_freq port1 port2 PARAMS: Cpar=8.2pF Ind=1.2uH
X1 port1 port2 Model1A PARAMS:
+ R1=4.3
+ R2=0.0046
+ C= {Cpar}
+ K1=0.000001
+ K2=0.19
+ K3= {Ind}
+ K4=0.000001
+ K5=0.000001
+ L=1.117E-06
+ Is=28.9719
+ a=0.8131
+ L_Z0=0
+ L_EL=0
+ L_F0=0E6
+ PkZ=1301.53392
.ends XGL5050-122_freq

*======================================================================
* SPICE Model generated by Coilcraft
* Coilcraft Part Number : XGL5050-122
* Inductance = 1.2uH
*======================================================================
* Model Parameters:
*   Valid Frequency Range = 0.1MHz-150MHz
*   Ambient Temperature = 25 degC
*   Inductor Saturation Model
*   Use model for Time Domain simulations
*======================================================================
.subckt XGL5050-122_sat port1 port2 PARAMS: Cpar=8.2pF Ind=1.2uH
X1 port1 port2 Model1C PARAMS:
+ R1=4.3
+ R2=0.0046
+ C= {Cpar}
+ K1=0.000001
+ K2=0.19
+ K3= {Ind}
+ K4=0.000001
+ K5=0.000001
+ L=1.117E-06
+ Is=28.9719
+ a=0.8131
+ L_Z0=0
+ L_EL=0
+ L_F0=0E6
+ PkZ=1301.53392
.ends XGL5050-122_sat

*======================================================================
* SPICE Model generated by Coilcraft
* Coilcraft Part Number : XGL5050-152
* Inductance = 1.5uH
*======================================================================
* Model Parameters:
*   Valid Frequency Range = 0.1MHz-150MHz
*   Ambient Temperature = 25 degC
*   Inductor Frequency Model
*   Use model for Frequency Domain simulations
*======================================================================
.subckt XGL5050-152_freq port1 port2 PARAMS: Cpar=8.8pF Ind=1.5uH
X1 port1 port2 Model1A PARAMS:
+ R1=5.2
+ R2=0.0057
+ C= {Cpar}
+ K1=0.000001
+ K2=0.26
+ K3= {Ind}
+ K4=0.000001
+ K5=0.000001
+ L=1.4541E-06
+ Is=24.9532
+ a=0.815
+ L_Z0=0
+ L_EL=0
+ L_F0=0E6
+ PkZ=1634.92017
.ends XGL5050-152_freq

*======================================================================
* SPICE Model generated by Coilcraft
* Coilcraft Part Number : XGL5050-152
* Inductance = 1.5uH
*======================================================================
* Model Parameters:
*   Valid Frequency Range = 0.1MHz-150MHz
*   Ambient Temperature = 25 degC
*   Inductor Saturation Model
*   Use model for Time Domain simulations
*======================================================================
.subckt XGL5050-152_sat port1 port2 PARAMS: Cpar=8.8pF Ind=1.5uH
X1 port1 port2 Model1C PARAMS:
+ R1=5.2
+ R2=0.0057
+ C= {Cpar}
+ K1=0.000001
+ K2=0.26
+ K3= {Ind}
+ K4=0.000001
+ K5=0.000001
+ L=1.4541E-06
+ Is=24.9532
+ a=0.815
+ L_Z0=0
+ L_EL=0
+ L_F0=0E6
+ PkZ=1634.92017
.ends XGL5050-152_sat

*======================================================================
* SPICE Model generated by Coilcraft
* Coilcraft Part Number : XGL5050-182
* Inductance = 1.8uH
*======================================================================
* Model Parameters:
*   Valid Frequency Range = 0.1MHz-150MHz
*   Ambient Temperature = 25 degC
*   Inductor Frequency Model
*   Use model for Frequency Domain simulations
*======================================================================
.subckt XGL5050-182_freq port1 port2 PARAMS: Cpar=8.6pF Ind=1.8uH
X1 port1 port2 Model1A PARAMS:
+ R1=5.2
+ R2=0.0078
+ C= {Cpar}
+ K1=0.000001
+ K2=0.32
+ K3= {Ind}
+ K4=0.000001
+ K5=0.000001
+ L=1.7506E-06
+ Is=21.0626
+ a=0.8132
+ L_Z0=0
+ L_EL=0
+ L_F0=0E6
+ PkZ=1937.19584
.ends XGL5050-182_freq

*======================================================================
* SPICE Model generated by Coilcraft
* Coilcraft Part Number : XGL5050-182
* Inductance = 1.8uH
*======================================================================
* Model Parameters:
*   Valid Frequency Range = 0.1MHz-150MHz
*   Ambient Temperature = 25 degC
*   Inductor Saturation Model
*   Use model for Time Domain simulations
*======================================================================
.subckt XGL5050-182_sat port1 port2 PARAMS: Cpar=8.6pF Ind=1.8uH
X1 port1 port2 Model1C PARAMS:
+ R1=5.2
+ R2=0.0078
+ C= {Cpar}
+ K1=0.000001
+ K2=0.32
+ K3= {Ind}
+ K4=0.000001
+ K5=0.000001
+ L=1.7506E-06
+ Is=21.0626
+ a=0.8132
+ L_Z0=0
+ L_EL=0
+ L_F0=0E6
+ PkZ=1937.19584
.ends XGL5050-182_sat

*======================================================================
* SPICE Model generated by Coilcraft
* Coilcraft Part Number : XGL5050-222
* Inductance = 2.2uH
*======================================================================
* Model Parameters:
*   Valid Frequency Range = 0.1MHz-150MHz
*   Ambient Temperature = 25 degC
*   Inductor Frequency Model
*   Use model for Frequency Domain simulations
*======================================================================
.subckt XGL5050-222_freq port1 port2 PARAMS: Cpar=8.8pF Ind=2.2uH
X1 port1 port2 Model1A PARAMS:
+ R1=5.2
+ R2=0.0082
+ C= {Cpar}
+ K1=0.000001
+ K2=0.42
+ K3= {Ind}
+ K4=0.000001
+ K5=0.000001
+ L=2.1767E-06
+ Is=20.2639
+ a=0.8152
+ L_Z0=0
+ L_EL=0
+ L_F0=0E6
+ PkZ=2399.78826
.ends XGL5050-222_freq

*======================================================================
* SPICE Model generated by Coilcraft
* Coilcraft Part Number : XGL5050-222
* Inductance = 2.2uH
*======================================================================
* Model Parameters:
*   Valid Frequency Range = 0.1MHz-150MHz
*   Ambient Temperature = 25 degC
*   Inductor Saturation Model
*   Use model for Time Domain simulations
*======================================================================
.subckt XGL5050-222_sat port1 port2 PARAMS: Cpar=8.8pF Ind=2.2uH
X1 port1 port2 Model1C PARAMS:
+ R1=5.2
+ R2=0.0082
+ C= {Cpar}
+ K1=0.000001
+ K2=0.42
+ K3= {Ind}
+ K4=0.000001
+ K5=0.000001
+ L=2.1767E-06
+ Is=20.2639
+ a=0.8152
+ L_Z0=0
+ L_EL=0
+ L_F0=0E6
+ PkZ=2399.78826
.ends XGL5050-222_sat

*======================================================================
* SPICE Model generated by Coilcraft
* Coilcraft Part Number : XGL5050-282
* Inductance = 2.8uH
*======================================================================
* Model Parameters:
*   Valid Frequency Range = 0.1MHz-150MHz
*   Ambient Temperature = 25 degC
*   Inductor Frequency Model
*   Use model for Frequency Domain simulations
*======================================================================
.subckt XGL5050-282_freq port1 port2 PARAMS: Cpar=7.6pF Ind=2.8uH
X1 port1 port2 Model1A PARAMS:
+ R1=6.2
+ R2=0.0098
+ C= {Cpar}
+ K1=0.000001
+ K2=0.5
+ K3= {Ind}
+ K4=0.000001
+ K5=0.000001
+ L=2.6121E-06
+ Is=18.536
+ a=0.8147
+ L_Z0=0
+ L_EL=0
+ L_F0=0E6
+ PkZ=2798.47008
.ends XGL5050-282_freq

*======================================================================
* SPICE Model generated by Coilcraft
* Coilcraft Part Number : XGL5050-282
* Inductance = 2.8uH
*======================================================================
* Model Parameters:
*   Valid Frequency Range = 0.1MHz-150MHz
*   Ambient Temperature = 25 degC
*   Inductor Saturation Model
*   Use model for Time Domain simulations
*======================================================================
.subckt XGL5050-282_sat port1 port2 PARAMS: Cpar=7.6pF Ind=2.8uH
X1 port1 port2 Model1C PARAMS:
+ R1=6.2
+ R2=0.0098
+ C= {Cpar}
+ K1=0.000001
+ K2=0.5
+ K3= {Ind}
+ K4=0.000001
+ K5=0.000001
+ L=2.6121E-06
+ Is=18.536
+ a=0.8147
+ L_Z0=0
+ L_EL=0
+ L_F0=0E6
+ PkZ=2798.47008
.ends XGL5050-282_sat

*======================================================================
* SPICE Model generated by Coilcraft
* Coilcraft Part Number : XGL5050-332
* Inductance = 3.3uH
*======================================================================
* Model Parameters:
*   Valid Frequency Range = 0.1MHz-150MHz
*   Ambient Temperature = 25 degC
*   Inductor Frequency Model
*   Use model for Frequency Domain simulations
*======================================================================
.subckt XGL5050-332_freq port1 port2 PARAMS: Cpar=8.6pF Ind=3.3uH
X1 port1 port2 Model1A PARAMS:
+ R1=5.8
+ R2=0.0115
+ C= {Cpar}
+ K1=0.000001
+ K2=0.64
+ K3= {Ind}
+ K4=0.000001
+ K5=0.000001
+ L=3.1734E-06
+ Is=16.1322
+ a=0.8227
+ L_Z0=0
+ L_EL=0
+ L_F0=0E6
+ PkZ=3322.33233
.ends XGL5050-332_freq

*======================================================================
* SPICE Model generated by Coilcraft
* Coilcraft Part Number : XGL5050-332
* Inductance = 3.3uH
*======================================================================
* Model Parameters:
*   Valid Frequency Range = 0.1MHz-150MHz
*   Ambient Temperature = 25 degC
*   Inductor Saturation Model
*   Use model for Time Domain simulations
*======================================================================
.subckt XGL5050-332_sat port1 port2 PARAMS: Cpar=8.6pF Ind=3.3uH
X1 port1 port2 Model1C PARAMS:
+ R1=5.8
+ R2=0.0115
+ C= {Cpar}
+ K1=0.000001
+ K2=0.64
+ K3= {Ind}
+ K4=0.000001
+ K5=0.000001
+ L=3.1734E-06
+ Is=16.1322
+ a=0.8227
+ L_Z0=0
+ L_EL=0
+ L_F0=0E6
+ PkZ=3322.33233
.ends XGL5050-332_sat

*======================================================================
* SPICE Model generated by Coilcraft
* Coilcraft Part Number : XGL5050-472
* Inductance = 4.7uH
*======================================================================
* Model Parameters:
*   Valid Frequency Range = 0.1MHz-150MHz
*   Ambient Temperature = 25 degC
*   Inductor Frequency Model
*   Use model for Frequency Domain simulations
*======================================================================
.subckt XGL5050-472_freq port1 port2 PARAMS: Cpar=8.4pF Ind=4.7uH
X1 port1 port2 Model1A PARAMS:
+ R1=6.2
+ R2=0.016
+ C= {Cpar}
+ K1=0.000001
+ K2=0.94
+ K3= {Ind}
+ K4=0.000001
+ K5=0.000001
+ L=4.5252E-06
+ Is=13.2466
+ a=0.8201
+ L_Z0=0
+ L_EL=0
+ L_F0=0E6
+ PkZ=4495.0968
.ends XGL5050-472_freq

*======================================================================
* SPICE Model generated by Coilcraft
* Coilcraft Part Number : XGL5050-472
* Inductance = 4.7uH
*======================================================================
* Model Parameters:
*   Valid Frequency Range = 0.1MHz-150MHz
*   Ambient Temperature = 25 degC
*   Inductor Saturation Model
*   Use model for Time Domain simulations
*======================================================================
.subckt XGL5050-472_sat port1 port2 PARAMS: Cpar=8.4pF Ind=4.7uH
X1 port1 port2 Model1C PARAMS:
+ R1=6.2
+ R2=0.016
+ C= {Cpar}
+ K1=0.000001
+ K2=0.94
+ K3= {Ind}
+ K4=0.000001
+ K5=0.000001
+ L=4.5252E-06
+ Is=13.2466
+ a=0.8201
+ L_Z0=0
+ L_EL=0
+ L_F0=0E6
+ PkZ=4495.0968
.ends XGL5050-472_sat

*======================================================================
* SPICE Model generated by Coilcraft
* Coilcraft Part Number : XGL5050-562
* Inductance = 5.6uH
*======================================================================
* Model Parameters:
*   Valid Frequency Range = 0.1MHz-100MHz
*   Ambient Temperature = 25 degC
*   Inductor Frequency Model
*   Use model for Frequency Domain simulations
*======================================================================
.subckt XGL5050-562_freq port1 port2 PARAMS: Cpar=8.4pF Ind=5.6uH
X1 port1 port2 Model1A PARAMS:
+ R1=6
+ R2=0.0197
+ C= {Cpar}
+ K1=0.000001
+ K2=1.2
+ K3= {Ind}
+ K4=0.000001
+ K5=0.000001
+ L=5.6154E-06
+ Is=11.988
+ a=0.8184
+ L_Z0=0
+ L_EL=0
+ L_F0=0E6
+ PkZ=5494.56951
.ends XGL5050-562_freq

*======================================================================
* SPICE Model generated by Coilcraft
* Coilcraft Part Number : XGL5050-562
* Inductance = 5.6uH
*======================================================================
* Model Parameters:
*   Valid Frequency Range = 0.1MHz-100MHz
*   Ambient Temperature = 25 degC
*   Inductor Saturation Model
*   Use model for Time Domain simulations
*======================================================================
.subckt XGL5050-562_sat port1 port2 PARAMS: Cpar=8.4pF Ind=5.6uH
X1 port1 port2 Model1C PARAMS:
+ R1=6
+ R2=0.0197
+ C= {Cpar}
+ K1=0.000001
+ K2=1.2
+ K3= {Ind}
+ K4=0.000001
+ K5=0.000001
+ L=5.6154E-06
+ Is=11.988
+ a=0.8184
+ L_Z0=0
+ L_EL=0
+ L_F0=0E6
+ PkZ=5494.56951
.ends XGL5050-562_sat

*======================================================================
* SPICE Model generated by Coilcraft
* Coilcraft Part Number : XGL5050-682
* Inductance = 6.8uH
*======================================================================
* Model Parameters:
*   Valid Frequency Range = 0.1MHz-100MHz
*   Ambient Temperature = 25 degC
*   Inductor Frequency Model
*   Use model for Frequency Domain simulations
*======================================================================
.subckt XGL5050-682_freq port1 port2 PARAMS: Cpar=7.6pF Ind=6.8uH
X1 port1 port2 Model1A PARAMS:
+ R1=6.4
+ R2=0.0231
+ C= {Cpar}
+ K1=0.000001
+ K2=1.4
+ K3= {Ind}
+ K4=0.000001
+ K5=0.000001
+ L=6.3816E-06
+ Is=11.7819
+ a=0.8091
+ L_Z0=0
+ L_EL=0
+ L_F0=0E6
+ PkZ=6290.71127
.ends XGL5050-682_freq

*======================================================================
* SPICE Model generated by Coilcraft
* Coilcraft Part Number : XGL5050-682
* Inductance = 6.8uH
*======================================================================
* Model Parameters:
*   Valid Frequency Range = 0.1MHz-100MHz
*   Ambient Temperature = 25 degC
*   Inductor Saturation Model
*   Use model for Time Domain simulations
*======================================================================
.subckt XGL5050-682_sat port1 port2 PARAMS: Cpar=7.6pF Ind=6.8uH
X1 port1 port2 Model1C PARAMS:
+ R1=6.4
+ R2=0.0231
+ C= {Cpar}
+ K1=0.000001
+ K2=1.4
+ K3= {Ind}
+ K4=0.000001
+ K5=0.000001
+ L=6.3816E-06
+ Is=11.7819
+ a=0.8091
+ L_Z0=0
+ L_EL=0
+ L_F0=0E6
+ PkZ=6290.71127
.ends XGL5050-682_sat

*======================================================================
* SPICE Model generated by Coilcraft
* Coilcraft Part Number : XGL5050-822
* Inductance = 8.2uH
*======================================================================
* Model Parameters:
*   Valid Frequency Range = 0.1MHz-100MHz
*   Ambient Temperature = 25 degC
*   Inductor Frequency Model
*   Use model for Frequency Domain simulations
*======================================================================
.subckt XGL5050-822_freq port1 port2 PARAMS: Cpar=9.6pF Ind=8.2uH
X1 port1 port2 Model1A PARAMS:
+ R1=6.8
+ R2=0.0275
+ C= {Cpar}
+ K1=0.000001
+ K2=1.9
+ K3= {Ind}
+ K4=0.000001
+ K5=0.000001
+ L=8.0113E-06
+ Is=10.2714
+ a=0.8182
+ L_Z0=0
+ L_EL=0
+ L_F0=0E6
+ PkZ=7562.43512
.ends XGL5050-822_freq

*======================================================================
* SPICE Model generated by Coilcraft
* Coilcraft Part Number : XGL5050-822
* Inductance = 8.2uH
*======================================================================
* Model Parameters:
*   Valid Frequency Range = 0.1MHz-100MHz
*   Ambient Temperature = 25 degC
*   Inductor Saturation Model
*   Use model for Time Domain simulations
*======================================================================
.subckt XGL5050-822_sat port1 port2 PARAMS: Cpar=9.6pF Ind=8.2uH
X1 port1 port2 Model1C PARAMS:
+ R1=6.8
+ R2=0.0275
+ C= {Cpar}
+ K1=0.000001
+ K2=1.9
+ K3= {Ind}
+ K4=0.000001
+ K5=0.000001
+ L=8.0113E-06
+ Is=10.2714
+ a=0.8182
+ L_Z0=0
+ L_EL=0
+ L_F0=0E6
+ PkZ=7562.43512
.ends XGL5050-822_sat

*======================================================================
* SPICE Model generated by Coilcraft
* Coilcraft Part Number : XGL5050-103
* Inductance = 10uH
*======================================================================
* Model Parameters:
*   Valid Frequency Range = 0.1MHz-100MHz
*   Ambient Temperature = 25 degC
*   Inductor Frequency Model
*   Use model for Frequency Domain simulations
*======================================================================
.subckt XGL5050-103_freq port1 port2 PARAMS: Cpar=8.7pF Ind=10uH
X1 port1 port2 Model1A PARAMS:
+ R1=7.4
+ R2=0.0336
+ C= {Cpar}
+ K1=0.000001
+ K2=2.3
+ K3= {Ind}
+ K4=0.000001
+ K5=0.000001
+ L=9.5515E-06
+ Is=9.2568
+ a=0.8185
+ L_Z0=0
+ L_EL=0
+ L_F0=0E6
+ PkZ=8952.89843
.ends XGL5050-103_freq

*======================================================================
* SPICE Model generated by Coilcraft
* Coilcraft Part Number : XGL5050-103
* Inductance = 10uH
*======================================================================
* Model Parameters:
*   Valid Frequency Range = 0.1MHz-100MHz
*   Ambient Temperature = 25 degC
*   Inductor Saturation Model
*   Use model for Time Domain simulations
*======================================================================
.subckt XGL5050-103_sat port1 port2 PARAMS: Cpar=8.7pF Ind=10uH
X1 port1 port2 Model1C PARAMS:
+ R1=7.4
+ R2=0.0336
+ C= {Cpar}
+ K1=0.000001
+ K2=2.3
+ K3= {Ind}
+ K4=0.000001
+ K5=0.000001
+ L=9.5515E-06
+ Is=9.2568
+ a=0.8185
+ L_Z0=0
+ L_EL=0
+ L_F0=0E6
+ PkZ=8952.89843
.ends XGL5050-103_sat

*======================================================================
* SPICE Model generated by Coilcraft
* Coilcraft Part Number : XGL5050-123
* Inductance = 12uH
*======================================================================
* Model Parameters:
*   Valid Frequency Range = 0.1MHz-75MHz
*   Ambient Temperature = 25 degC
*   Inductor Frequency Model
*   Use model for Frequency Domain simulations
*======================================================================
.subckt XGL5050-123_freq port1 port2 PARAMS: Cpar=9pF Ind=12uH
X1 port1 port2 Model1A PARAMS:
+ R1=7.4
+ R2=0.043
+ C= {Cpar}
+ K1=0.000001
+ K2=2.8
+ K3= {Ind}
+ K4=0.000001
+ K5=0.000001
+ L=1.1991E-05
+ Is=8.0496
+ a=0.8223
+ L_Z0=0
+ L_EL=0