*======================================================================
* SPICE Model generated by Coilcraft
* Coilcraft Part Number : XGL5020-161
* Inductance = 160nH
*======================================================================
* Model Parameters:
*   Valid Frequency Range = 0.1MHz-250MHz
*   Ambient Temperature = 25 degC
*   Inductor Frequency Model
*   Use model for Frequency Domain simulations
*======================================================================
.subckt XGL5020-161_freq port1 port2 PARAMS: Cpar=7pF Ind=0.16uH
X1 port1 port2 Model1A PARAMS:
+ R1=5
+ R2=0.0018
+ C= {Cpar}
+ K1=0.0002
+ K2=0.027
+ K3= {Ind}
+ K4=0.002
+ K5=0.000001
+ L=1.57E-07
+ Is=57.2567
+ a=0.7216
+ L_Z0=0
+ L_EL=0
+ L_F0=0E6
+ PkZ=301.095854
.ends XGL5020-161_freq

*======================================================================
* SPICE Model generated by Coilcraft
* Coilcraft Part Number : XGL5020-161
* Inductance = 160nH
*======================================================================
* Model Parameters:
*   Valid Frequency Range = 0.1MHz-250MHz
*   Ambient Temperature = 25 degC
*   Inductor Saturation Model
*   Use model for Time Domain simulations
*======================================================================
.subckt XGL5020-161_sat port1 port2 PARAMS: Cpar=6.561pF Ind=0.16uH
X1 port1 port2 Model1C PARAMS:
+ R1=5
+ R2=0.0018
+ C= {Cpar}
+ K1=0.0002
+ K2=0.027
+ K3= {Ind}
+ K4=0.002
+ K5=0.000001
+ L=1.57E-07
+ Is=57.2567
+ a=0.7216
+ L_Z0=0
+ L_EL=0
+ L_F0=0E6
+ PkZ=301.095854
.ends XGL5020-161_sat

*======================================================================
* SPICE Model generated by Coilcraft
* Coilcraft Part Number : XGL5020-331
* Inductance = 330nH
*======================================================================
* Model Parameters:
*   Valid Frequency Range = 0.1MHz-250MHz
*   Ambient Temperature = 25 degC
*   Inductor Frequency Model
*   Use model for Frequency Domain simulations
*======================================================================
.subckt XGL5020-331_freq port1 port2 PARAMS: Cpar=8pF Ind=0.33uH
X1 port1 port2 Model1A PARAMS:
+ R1=5
+ R2=0.0027
+ C= {Cpar}
+ K1=0.00004
+ K2=0.056
+ K3= {Ind}
+ K4=0.006
+ K5=0.000001
+ L=3.411E-07
+ Is=38.5492
+ a=0.7468
+ L_Z0=0
+ L_EL=0
+ L_F0=0E6
+ PkZ=524.023012
.ends XGL5020-331_freq

*======================================================================
* SPICE Model generated by Coilcraft
* Coilcraft Part Number : XGL5020-331
* Inductance = 330nH
*======================================================================
* Model Parameters:
*   Valid Frequency Range = 0.1MHz-250MHz
*   Ambient Temperature = 25 degC
*   Inductor Saturation Model
*   Use model for Time Domain simulations
*======================================================================
.subckt XGL5020-331_sat port1 port2 PARAMS: Cpar=7.333pF Ind=0.33uH
X1 port1 port2 Model1C PARAMS:
+ R1=5
+ R2=0.0027
+ C= {Cpar}
+ K1=0.00004
+ K2=0.056
+ K3= {Ind}
+ K4=0.006
+ K5=0.000001
+ L=3.411E-07
+ Is=38.5492
+ a=0.7468
+ L_Z0=0
+ L_EL=0
+ L_F0=0E6
+ PkZ=524.023012
.ends XGL5020-331_sat

*======================================================================
* SPICE Model generated by Coilcraft
* Coilcraft Part Number : XGL5020-471
* Inductance = 470nH
*======================================================================
* Model Parameters:
*   Valid Frequency Range = 0.1MHz-250MHz
*   Ambient Temperature = 25 degC
*   Inductor Frequency Model
*   Use model for Frequency Domain simulations
*======================================================================
.subckt XGL5020-471_freq port1 port2 PARAMS: Cpar=9pF Ind=0.47uH
X1 port1 port2 Model1A PARAMS:
+ R1=4
+ R2=0.0037
+ C= {Cpar}
+ K1=0.0001
+ K2=0.085
+ K3= {Ind}
+ K4=0.002
+ K5=0.000001
+ L=4.789E-07
+ Is=37.9482
+ a=0.644
+ L_Z0=0
+ L_EL=0
+ L_F0=0E6
+ PkZ=701.062611
.ends XGL5020-471_freq

*======================================================================
* SPICE Model generated by Coilcraft
* Coilcraft Part Number : XGL5020-471
* Inductance = 470nH
*======================================================================
* Model Parameters:
*   Valid Frequency Range = 0.1MHz-250MHz
*   Ambient Temperature = 25 degC
*   Inductor Saturation Model
*   Use model for Time Domain simulations
*======================================================================
.subckt XGL5020-471_sat port1 port2 PARAMS: Cpar=8.833pF Ind=0.47uH
X1 port1 port2 Model1C PARAMS:
+ R1=4
+ R2=0.0037
+ C= {Cpar}
+ K1=0.0001
+ K2=0.085
+ K3= {Ind}
+ K4=0.002
+ K5=0.000001
+ L=4.789E-07
+ Is=37.9482
+ a=0.644
+ L_Z0=0
+ L_EL=0
+ L_F0=0E6
+ PkZ=701.062611
.ends XGL5020-471_sat

*======================================================================
* SPICE Model generated by Coilcraft
* Coilcraft Part Number : XGL5020-561
* Inductance = 560nH
*======================================================================
* Model Parameters:
*   Valid Frequency Range = 0.1MHz-250MHz
*   Ambient Temperature = 25 degC
*   Inductor Frequency Model
*   Use model for Frequency Domain simulations
*======================================================================
.subckt XGL5020-561_freq port1 port2 PARAMS: Cpar=9pF Ind=0.56uH
X1 port1 port2 Model1A PARAMS:
+ R1=5
+ R2=0.0042
+ C= {Cpar}
+ K1=0.0002
+ K2=0.095
+ K3= {Ind}
+ K4=0.001
+ K5=0.000001
+ L=5.481E-07
+ Is=34.1527
+ a=0.69
+ L_Z0=0
+ L_EL=0
+ L_F0=0E6
+ PkZ=737.433187
.ends XGL5020-561_freq

*======================================================================
* SPICE Model generated by Coilcraft
* Coilcraft Part Number : XGL5020-561
* Inductance = 560nH
*======================================================================
* Model Parameters:
*   Valid Frequency Range = 0.1MHz-250MHz
*   Ambient Temperature = 25 degC
*   Inductor Saturation Model
*   Use model for Time Domain simulations
*======================================================================
.subckt XGL5020-561_sat port1 port2 PARAMS: Cpar=8.932pF Ind=0.56uH
X1 port1 port2 Model1C PARAMS:
+ R1=5
+ R2=0.0042
+ C= {Cpar}
+ K1=0.0002
+ K2=0.095
+ K3= {Ind}
+ K4=0.001
+ K5=0.000001
+ L=5.481E-07
+ Is=34.1527
+ a=0.69
+ L_Z0=0
+ L_EL=0
+ L_F0=0E6
+ PkZ=737.433187
.ends XGL5020-561_sat

*======================================================================
* SPICE Model generated by Coilcraft
* Coilcraft Part Number : XGL5020-681
* Inductance = 680nH
*======================================================================
* Model Parameters:
*   Valid Frequency Range = 0.1MHz-200MHz
*   Ambient Temperature = 25 degC
*   Inductor Frequency Model
*   Use model for Frequency Domain simulations
*======================================================================
.subckt XGL5020-681_freq port1 port2 PARAMS: Cpar=8pF Ind=0.68uH
X1 port1 port2 Model1A PARAMS:
+ R1=5
+ R2=0.0053
+ C= {Cpar}
+ K1=0.00025
+ K2=0.11
+ K3= {Ind}
+ K4=0.005
+ K5=0.0000005
+ L=6.403E-07
+ Is=30.4868
+ a=0.7016
+ L_Z0=0
+ L_EL=0
+ L_F0=0E6
+ PkZ=848.332222
.ends XGL5020-681_freq

*======================================================================
* SPICE Model generated by Coilcraft
* Coilcraft Part Number : XGL5020-681
* Inductance = 680nH
*======================================================================
* Model Parameters:
*   Valid Frequency Range = 0.1MHz-200MHz
*   Ambient Temperature = 25 degC
*   Inductor Saturation Model
*   Use model for Time Domain simulations
*======================================================================
.subckt XGL5020-681_sat port1 port2 PARAMS: Cpar=7.792pF Ind=0.68uH
X1 port1 port2 Model1C PARAMS:
+ R1=5
+ R2=0.0053
+ C= {Cpar}
+ K1=0.00025
+ K2=0.11
+ K3= {Ind}
+ K4=0.005
+ K5=0.0000005
+ L=6.403E-07
+ Is=30.4868
+ a=0.7016
+ L_Z0=0
+ L_EL=0
+ L_F0=0E6
+ PkZ=848.332222
.ends XGL5020-681_sat

*======================================================================
* SPICE Model generated by Coilcraft
* Coilcraft Part Number : XGL5020-821
* Inductance = 820nH
*======================================================================
* Model Parameters:
*   Valid Frequency Range = 0.1MHz-200MHz
*   Ambient Temperature = 25 degC
*   Inductor Frequency Model
*   Use model for Frequency Domain simulations
*======================================================================
.subckt XGL5020-821_freq port1 port2 PARAMS: Cpar=9pF Ind=0.82uH
X1 port1 port2 Model1A PARAMS:
+ R1=4
+ R2=0.0059
+ C= {Cpar}
+ K1=0.00015
+ K2=0.15
+ K3= {Ind}
+ K4=0.0065
+ K5=0.0000007
+ L=7.887E-07
+ Is=29.753
+ a=0.6462
+ L_Z0=0
+ L_EL=0
+ L_F0=0E6
+ PkZ=1083.64407
.ends XGL5020-821_freq

*======================================================================
* SPICE Model generated by Coilcraft
* Coilcraft Part Number : XGL5020-821
* Inductance = 820nH
*======================================================================
* Model Parameters:
*   Valid Frequency Range = 0.1MHz-200MHz
*   Ambient Temperature = 25 degC
*   Inductor Saturation Model
*   Use model for Time Domain simulations
*======================================================================
.subckt XGL5020-821_sat port1 port2 PARAMS: Cpar=8.735pF Ind=0.82uH
X1 port1 port2 Model1C PARAMS:
+ R1=4
+ R2=0.0059
+ C= {Cpar}
+ K1=0.00015
+ K2=0.15
+ K3= {Ind}
+ K4=0.0065
+ K5=0.0000007
+ L=7.887E-07
+ Is=29.753
+ a=0.6462
+ L_Z0=0
+ L_EL=0
+ L_F0=0E6
+ PkZ=1083.64407
.ends XGL5020-821_sat

*======================================================================
* SPICE Model generated by Coilcraft
* Coilcraft Part Number : XGL5020-901
* Inductance = 900nH
*======================================================================
* Model Parameters:
*   Valid Frequency Range = 0.1MHz-200MHz
*   Ambient Temperature = 25 degC
*   Inductor Frequency Model
*   Use model for Frequency Domain simulations
*======================================================================
.subckt XGL5020-901_freq port1 port2 PARAMS: Cpar=9pF Ind=0.9uH
X1 port1 port2 Model1A PARAMS:
+ R1=4
+ R2=0.007
+ C= {Cpar}
+ K1=0.00015
+ K2=0.16
+ K3= {Ind}
+ K4=0.0065
+ K5=0.0000006
+ L=9.166E-07
+ Is=26.0942
+ a=0.6946
+ L_Z0=0
+ L_EL=0
+ L_F0=0E6
+ PkZ=1132.45065
.ends XGL5020-901_freq

*======================================================================
* SPICE Model generated by Coilcraft
* Coilcraft Part Number : XGL5020-901
* Inductance = 900nH
*======================================================================
* Model Parameters:
*   Valid Frequency Range = 0.1MHz-200MHz
*   Ambient Temperature = 25 degC
*   Inductor Saturation Model
*   Use model for Time Domain simulations
*======================================================================
.subckt XGL5020-901_sat port1 port2 PARAMS: Cpar=8.772pF Ind=0.9uH
X1 port1 port2 Model1C PARAMS:
+ R1=4
+ R2=0.007
+ C= {Cpar}
+ K1=0.00015
+ K2=0.16
+ K3= {Ind}
+ K4=0.0065
+ K5=0.0000006
+ L=9.166E-07
+ Is=26.0942
+ a=0.6946
+ L_Z0=0
+ L_EL=0
+ L_F0=0E6
+ PkZ=1132.45065
.ends XGL5020-901_sat

*======================================================================
* SPICE Model generated by Coilcraft
* Coilcraft Part Number : XGL5020-102
* Inductance = 1uH
*======================================================================
* Model Parameters:
*   Valid Frequency Range = 0.1MHz-150MHz
*   Ambient Temperature = 25 degC
*   Inductor Frequency Model
*   Use model for Frequency Domain simulations
*======================================================================
.subckt XGL5020-102_freq port1 port2 PARAMS: Cpar=10.5pF Ind=1uH
X1 port1 port2 Model1A PARAMS:
+ R1=4
+ R2=0.0075
+ C= {Cpar}
+ K1=0.00015
+ K2=0.18
+ K3= {Ind}
+ K4=0.0065
+ K5=0.0000006
+ L=9.696E-07
+ Is=24.5926
+ a=0.7126
+ L_Z0=0
+ L_EL=0
+ L_F0=0E6
+ PkZ=1186.80435
.ends XGL5020-102_freq

*======================================================================
* SPICE Model generated by Coilcraft
* Coilcraft Part Number : XGL5020-102
* Inductance = 1uH
*======================================================================
* Model Parameters:
*   Valid Frequency Range = 0.1MHz-150MHz
*   Ambient Temperature = 25 degC
*   Inductor Saturation Model
*   Use model for Time Domain simulations
*======================================================================
.subckt XGL5020-102_sat port1 port2 PARAMS: Cpar=10.269pF Ind=1uH
X1 port1 port2 Model1C PARAMS:
+ R1=4
+ R2=0.0075
+ C= {Cpar}
+ K1=0.00015
+ K2=0.18
+ K3= {Ind}
+ K4=0.0065
+ K5=0.0000006
+ L=9.696E-07
+ Is=24.5926
+ a=0.7126
+ L_Z0=0
+ L_EL=0
+ L_F0=0E6
+ PkZ=1186.80435
.ends XGL5020-102_sat

*======================================================================
* SPICE Model generated by Coilcraft
* Coilcraft Part Number : XGL5020-122
* Inductance = 1.2uH
*======================================================================
* Model Parameters:
*   Valid Frequency Range = 0.1MHz-150MHz
*   Ambient Temperature = 25 degC
*   Inductor Frequency Model
*   Use model for Frequency Domain simulations
*======================================================================
.subckt XGL5020-122_freq port1 port2 PARAMS: Cpar=11pF Ind=1.2uH
X1 port1 port2 Model1A PARAMS:
+ R1=5
+ R2=0.0089
+ C= {Cpar}
+ K1=0.00015
+ K2=0.25
+ K3= {Ind}
+ K4=0.01
+ K5=0.0000008
+ L=1.2761E-06
+ Is=22.3856
+ a=0.6896
+ L_Z0=0
+ L_EL=0
+ L_F0=0E6
+ PkZ=1523.23163
.ends XGL5020-122_freq

*======================================================================
* SPICE Model generated by Coilcraft
* Coilcraft Part Number : XGL5020-122
* Inductance = 1.2uH
*======================================================================
* Model Parameters:
*   Valid Frequency Range = 0.1MHz-150MHz
*   Ambient Temperature = 25 degC
*   Inductor Saturation Model
*   Use model for Time Domain simulations
*======================================================================
.subckt XGL5020-122_sat port1 port2 PARAMS: Cpar=10.674pF Ind=1.2uH
X1 port1 port2 Model1C PARAMS:
+ R1=5
+ R2=0.0089
+ C= {Cpar}
+ K1=0.00015
+ K2=0.25
+ K3= {Ind}
+ K4=0.01
+ K5=0.0000008
+ L=1.2761E-06
+ Is=22.3856
+ a=0.6896
+ L_Z0=0
+ L_EL=0
+ L_F0=0E6
+ PkZ=1523.23163
.ends XGL5020-122_sat

*======================================================================
* SPICE Model generated by Coilcraft
* Coilcraft Part Number : XGL5020-152
* Inductance = 1.5uH
*======================================================================
* Model Parameters:
*   Valid Frequency Range = 0.1MHz-150MHz
*   Ambient Temperature = 25 degC
*   Inductor Frequency Model
*   Use model for Frequency Domain simulations
*======================================================================
.subckt XGL5020-152_freq port1 port2 PARAMS: Cpar=11.5pF Ind=1.5uH
X1 port1 port2 Model1A PARAMS:
+ R1=5
+ R2=0.0114
+ C= {Cpar}
+ K1=0.0001
+ K2=0.24
+ K3= {Ind}
+ K4=0.02
+ K5=0.25
+ L=1.6269E-06
+ Is=20.6144
+ a=0.6682
+ L_Z0=0
+ L_EL=0
+ L_F0=0E6
+ PkZ=1451.47261
.ends XGL5020-152_freq

*======================================================================
* SPICE Model generated by Coilcraft
* Coilcraft Part Number : XGL5020-152
* Inductance = 1.5uH
*======================================================================
* Model Parameters:
*   Valid Frequency Range = 0.1MHz-150MHz
*   Ambient Temperature = 25 degC
*   Inductor Saturation Model
*   Use model for Time Domain simulations
*======================================================================
.subckt XGL5020-152_sat port1 port2 PARAMS: Cpar=9.035pF Ind=1.5uH
X1 port1 port2 Model1C PARAMS:
+ R1=5
+ R2=0.0114
+ C= {Cpar}
+ K1=0.0001
+ K2=0.24
+ K3= {Ind}
+ K4=0.02
+ K5=0.25
+ L=1.6269E-06
+ Is=20.6144
+ a=0.6682
+ L_Z0=0
+ L_EL=0
+ L_F0=0E6
+ PkZ=1451.47261
.ends XGL5020-152_sat

*======================================================================
* SPICE Model generated by Coilcraft
* Coilcraft Part Number : XGL5020-182
* Inductance = 1.8uH
*======================================================================
* Model Parameters:
*   Valid Frequency Range = 0.1MHz-150MHz
*   Ambient Temperature = 25 degC
*   Inductor Frequency Model
*   Use model for Frequency Domain simulations
*======================================================================
.subckt XGL5020-182_freq port1 port2 PARAMS: Cpar=9.5pF Ind=1.8uH
X1 port1 port2 Model1A PARAMS:
+ R1=5
+ R2=0.0143
+ C= {Cpar}
+ K1=0.0002
+ K2=0.35
+ K3= {Ind}
+ K4=0.0035
+ K5=0.0000005
+ L=1.887E-06
+ Is=17.793
+ a=0.7168
+ L_Z0=0
+ L_EL=0
+ L_F0=0E6
+ PkZ=2028.35314
.ends XGL5020-182_freq

*======================================================================
* SPICE Model generated by Coilcraft
* Coilcraft Part Number : XGL5020-182
* Inductance = 1.8uH
*======================================================================
* Model Parameters:
*   Valid Frequency Range = 0.1MHz-150MHz
*   Ambient Temperature = 25 degC
*   Inductor Saturation Model
*   Use model for Time Domain simulations
*======================================================================
.subckt XGL5020-182_sat port1 port2 PARAMS: Cpar=9.445pF Ind=1.8uH
X1 port1 port2 Model1C PARAMS:
+ R1=5
+ R2=0.0143
+ C= {Cpar}
+ K1=0.0002
+ K2=0.35
+ K3= {Ind}
+ K4=0.0035
+ K5=0.0000005
+ L=1.887E-06
+ Is=17.793
+ a=0.7168
+ L_Z0=0
+ L_EL=0
+ L_F0=0E6
+ PkZ=2028.35314
.ends XGL5020-182_sat

*======================================================================
* SPICE Model generated by Coilcraft
* Coilcraft Part Number : XGL5020-222
* Inductance = 2.2uH
*======================================================================
* Model Parameters:
*   Valid Frequency Range = 0.1MHz-150MHz
*   Ambient Temperature = 25 degC
*   Inductor Frequency Model
*   Use model for Frequency Domain simulations
*======================================================================
.subckt XGL5020-222_freq port1 port2 PARAMS: Cpar=10pF Ind=2.2uH
X1 port1 port2 Model1A PARAMS:
+ R1=5
+ R2=0.0163
+ C= {Cpar}
+ K1=0.0002
+ K2=0.5
+ K3= {Ind}
+ K4=0.007
+ K5=0.000001
+ L=2.3278E-06
+ Is=16.6508
+ a=0.7008
+ L_Z0=0
+ L_EL=0
+ L_F0=0E6
+ PkZ=2697.41383
.ends XGL5020-222_freq

*======================================================================
* SPICE Model generated by Coilcraft
* Coilcraft Part Number : XGL5020-222
* Inductance = 2.2uH
*======================================================================
* Model Parameters:
*   Valid Frequency Range = 0.1MHz-150MHz
*   Ambient Temperature = 25 degC
*   Inductor Saturation Model
*   Use model for Time Domain simulations
*======================================================================
.subckt XGL5020-222_sat port1 port2 PARAMS: Cpar=9.888pF Ind=2.2uH
X1 port1 port2 Model1C PARAMS:
+ R1=5
+ R2=0.0163
+ C= {Cpar}
+ K1=0.0002
+ K2=0.5
+ K3= {Ind}
+ K4=0.007
+ K5=0.000001
+ L=2.3278E-06
+ Is=16.6508
+ a=0.7008
+ L_Z0=0
+ L_EL=0
+ L_F0=0E6
+ PkZ=2697.41383
.ends XGL5020-222_sat

*======================================================================
* SPICE Model generated by Coilcraft
* Coilcraft Part Number : XGL5020-332
* Inductance = 3.3uH
*======================================================================
* Model Parameters:
*   Valid Frequency Range = 0.1MHz-150MHz
*   Ambient Temperature = 25 degC
*   Inductor Frequency Model
*   Use model for Frequency Domain simulations
*======================================================================
.subckt XGL5020-332_freq port1 port2 PARAMS: Cpar=10pF Ind=3.3uH
X1 port1 port2 Model1A PARAMS:
+ R1=5
+ R2=0.0234
+ C= {Cpar}
+ K1=0.0005
+ K2=0.7
+ K3= {Ind}
+ K4=0.001
+ K5=0.00000004
+ L=3.176E-06
+ Is=13.7577
+ a=0.7137
+ L_Z0=0
+ L_EL=0
+ L_F0=0E6
+ PkZ=3395.25639
.ends XGL5020-332_freq

*======================================================================
* SPICE Model generated by Coilcraft
* Coilcraft Part Number : XGL5020-332
* Inductance = 3.3uH
*======================================================================
* Model Parameters:
*   Valid Frequency Range = 0.1MHz-150MHz
*   Ambient Temperature = 25 degC
*   Inductor Saturation Model
*   Use model for Time Domain simulations
*======================================================================
.subckt XGL5020-332_sat port1 port2 PARAMS: Cpar=10pF Ind=3.3uH
X1 port1 port2 Model1C PARAMS:
+ R1=5
+ R2=0.0234
+ C= {Cpar}
+ K1=0.0005
+ K2=0.7
+ K3= {Ind}
+ K4=0.001
+ K5=0.00000004
+ L=3.176E-06
+ Is=13.7577
+ a=0.7137
+ L_Z0=0
+ L_EL=0
+ L_F0=0E6
+ PkZ=3395.25639
.ends XGL5020-332_sat

*======================================================================
* SPICE Model generated by Coilcraft
* Coilcraft Part Number : XGL5020-472
* Inductance = 4.7uH
*======================================================================
* Model Parameters:
*   Valid Frequency Range = 0.1MHz-150MHz
*   Ambient Temperature = 25 degC
*   Inductor Frequency Model
*   Use model for Frequency Domain simulations
*======================================================================
.subckt XGL5020-472_freq port1 port2 PARAMS: Cpar=13.5pF Ind=4.7uH
X1 port1 port2 Model1A PARAMS:
+ R1=4.5
+ R2=0.036
+ C= {Cpar}
+ K1=0.0006
+ K2=1.1
+ K3= {Ind}
+ K4=0.1
+ K5=0.000001
+ L=4.8503E-06
+ Is=11.8952
+ a=0.6723
+ L_Z0=0
+ L_EL=0
+ L_F0=0E6
+ PkZ=4499.60168
.ends XGL5020-472_freq

*======================================================================
* SPICE Model generated by Coilcraft
* Coilcraft Part Number : XGL5020-472
* Inductance = 4.7uH
*======================================================================
* Model Parameters:
*   Valid Frequency Range = 0.1MHz-150MHz
*   Ambient Temperature = 25 degC
*   Inductor Saturation Model
*   Use model for Time Domain simulations
*======================================================================
.subckt XGL5020-472_sat port1 port2 PARAMS: Cpar=12.64pF Ind=4.7uH
X1 port1 port2 Model1C PARAMS:
+ R1=4.5
+ R2=0.036
+ C= {Cpar}
+ K1=0.0006
+ K2=1.1
+ K3= {Ind}
+ K4=0.1
+ K5=0.000001
+ L=4.8503E-06
+ Is=11.8952
+ a=0.6723
+ L_Z0=0
+ L_EL=0
+ L_F0=0E6
+ PkZ=4499.60168
.ends XGL5020-472_sat

*======================================================================
* SPICE Model generated by Coilcraft
* Coilcraft Part Number : XGL5020-562
* Inductance = 5.6uH
*======================================================================
* Model Parameters:
*   Valid Frequency Range = 0.1MHz-150MHz
*   Ambient Temperature = 25 degC
*   Inductor Frequency Model
*   Use model for Frequency Domain simulations
*======================================================================
.subckt XGL5020-562_freq port1 port2 PARAMS: Cpar=12pF Ind=5.6uH
X1 port1 port2 Model1A PARAMS:
+ R1=4.5
+ R2=0.0451
+ C= {Cpar}
+ K1=0.0006
+ K2=1.5
+ K3= {Ind}
+ K4=0.09
+ K5=0.000001
+ L=5.5467E-06
+ Is=11.475
+ a=0.659
+ L_Z0=0
+ L_EL=0
+ L_F0=0E6
+ PkZ=6038.05216
.ends XGL5020-562_freq

*======================================================================
* SPICE Model generated by Coilcraft
* Coilcraft Part Number : XGL5020-562
* Inductance = 5.6uH
*======================================================================
* Model Parameters:
*   Valid Frequency Range = 0.1MHz-150MHz
*   Ambient Temperature = 25 degC
*   Inductor Saturation Model
*   Use model for Time Domain simulations
*======================================================================
.subckt XGL5020-562_sat port1 port2 PARAMS: Cpar=11.428pF Ind=5.6uH
X1 port1 port2 Model1C PARAMS:
+ R1=4.5
+ R2=0.0451
+ C= {Cpar}
+ K1=0.0006
+ K2=1.5
+ K3= {Ind}
+ K4=0.09
+ K5=0.000001
+ L=5.5467E-06
+ Is=11.475
+ a=0.659
+ L_Z0=0
+ L_EL=0
+ L_F0=0E6
+ PkZ=6038.05216
.ends XGL5020-562_sat

*======================================================================
* SPICE Model generated by Coilcraft
* Coilcraft Part Number : XGL5020-682
* Inductance = 6.8uH
*======================================================================
* Model Parameters:
*   Valid Frequency Range = 0.1MHz-150MHz
*   Ambient Temperature = 25 degC
*   Inductor Frequency Model
*   Use model for Frequency Domain simulations
*======================================================================
.subckt XGL5020-682_freq port1 port2 PARAMS: Cpar=10pF Ind=6.8uH
X1 port1 port2 Model1A PARAMS:
+ R1=5
+ R2=0.055
+ C= {Cpar}
+ K1=0.0002
+ K2=1.5
+ K3= {Ind}
+ K4=0.04
+ K5=0.0000015
+ L=6.5084E-06
+ Is=9.682
+ a=0.7059
+ L_Z0=0
+ L_EL=0
+ L_F0=0E6
+ PkZ=6257.15234
.ends XGL5020-682_freq

*======================================================================
* SPICE Model generated by Coilcraft
* Coilcraft Part Number : XGL5020-682
* Inductance = 6.8uH
*======================================================================
* Model Parameters:
*   Valid Frequency Range = 0.1MHz-150MHz
*   Ambient Temperature = 25 degC
*   Inductor Saturation Model
*   Use model for Time Domain simulations
*======================================================================
.subckt XGL5020-682_sat port1 port2 PARAMS: Cpar=9.802pF Ind=6.8uH
X1 port1 port2 Model1C PARAMS:
+ R1=5
+ R2=0.055
+ C= {Cpar}
+ K1=0.0002
+ K2=1.5
+ K3= {Ind}
+ K4=0.04
+ K5=0.0000015
+ L=6.5084E-06
+ Is=9.682
+ a=0.7059
+ L_Z0=0
+ L_EL=0
+ L_F0=0E6
+ PkZ=6257.15234
.ends XGL5020-682_sat

*======================================================================
* SPICE Model generated by Coilcraft
* Coilcraft Part Number : XGL5020-822
* Inductance = 8.2uH
*======================================================================
* Model Parameters:
*   Valid Frequency Range = 0.1MHz-150MHz
*   Ambient Temperature = 25 degC
*   Inductor Frequency Model
*   Use model for Frequency Domain simulations
*======================================================================
.subckt XGL5020-822_freq port1 port2 PARAMS: Cpar=12pF Ind=8.2uH
X1 port1 port2 Model1A PARAMS:
+ R1=4.5
+ R2=0.064
+ C= {Cpar}
+ K1=0.0004
+ K2=1.7
+ K3= {Ind}
+ K4=0.05
+ K5=0.0000015
+ L=7.9035E-06
+ Is=9.1132
+ a=0.6834
+ L_Z0=0
+ L_EL=0
+ L_F0=0E6
+ PkZ=6441.01419
.ends XGL5020-822_freq

*======================================================================
* SPICE Model generated by Coilcraft
* Coilcraft Part Number : XGL5020-822
* Inductance = 8.2uH
*======================================================================
* Model Parameters:
*   Valid Frequency Range = 0.1MHz-150MHz
*   Ambient Temperature = 25 degC
*   Inductor Saturation Model
*   Use model for Time Domain simulations
*======================================================================
.subckt XGL5020-822_sat port1 port2 PARAMS: Cpar=11.767pF Ind=8.2uH
X1 port1 port2 Model1C PARAMS:
+ R1=4.5
+ R2=0.064
+ C= {Cpar}
+ K1=0.0004
+ K2=1.7
+ K3= {Ind}
+ K4=0.05
+ K5=0.0000015
+ L=7.9035E-06
+ Is=9.1132
+ a=0.6834
+ L_Z0=0
+ L_EL=0
+ L_F0=0E6
+ PkZ=6441.01419
.ends XGL5020-822_sat

*======================================================================
* SPICE Model generated by Coilcraft
* Coilcraft Saturation Inductor Model
*======================================================================
* Model Parameters:
*   Valid Frequency Range Varies by Inductor
*   Ambient Temperature = 25 degC
*   Current Saturable Inductor Model
*======================================================================
.subckt Model1C Lin Lout PARAMS:
+ R1=1
+ R2=1
+ C=1
+ L=1
+ Is=1
+ a=1
+ PkZ=94.2 * {L} *1e6
R2 Lin N001 {R2}
R3 N001 Lout {PkZ}
C1 N001 N002 {C}
R1 N002 Lout {R1}
L1 N001 Lout flux={L*Is}*pwrs(tanh(pwrs((x/{Is}),{a})),{1/a})
.ends Model1C





*======================================================================
* SPICE Model generated by Coilcraft
* Coilcraft Power Inductor Model
*======================================================================
* Model Parameters:
*   Valid Frequency Range Varies by Inductor
*   Ambient Temperature = 25 degC
*   DC Bias Current = 0 A
*   Frequency Dependent Inductor Model
*======================================================================
.subckt Model1A Lin Lout PARAMS:
+ R1=1
+ R2=1
+ C=1
+ K1=1
+ K2=1
+ K3=1
+ K4=1
+ K5=1
R2 N001 Lin {R2}
R1 Lout N002 {R1}
C1 N002 N001 {C}
G_Rvar2 N001 Lout LAPLACE { V(N001, Lout) } {1/K2/(-S*S/4/PI^2)^0.25}
G_Rvar1 N001 N003 LAPLACE { V(N001, N003) } {1/K1/(-S*S/4/PI^2)^0.25}
G_Lvar N003 Lout  LAPLACE { V(N003, Lout) } {1/(S*1e-6*({K3*1e6}-({K4}*LOG({K5}*(sqrt(-S*S)/(2*pi))))))}
*This large resistance to ground has been added to prevent a floating node error
R3 N003 0 100Meg
.ends Model1A


.subckt Coilcraft_Inductor Lin Lout
R1 Lout Lin 100Meg
.ends Coilcraft_Inductor
