*======================================================================
* SPICE Model generated by Coilcraft
* Coilcraft Part Number : XGL5030-181
* Inductance = 180nH
*======================================================================
* Model Parameters:
*   Valid Frequency Range = 0.1MHz-300MHz
*   Ambient Temperature = 25 degC
*   Inductor Frequency Model
*   Use model for Frequency Domain simulations
*======================================================================
.subckt XGL5030-181_freq port1 port2 PARAMS: Cpar=6.3pF Ind=0.18uH
X1 port1 port2 Model1A PARAMS:
+ R1=5.6
+ R2=0.0016
+ C= {Cpar}
+ K1=0.000001
+ K2=0.028
+ K3= {Ind}
+ K4=0.000001
+ K5=0.000001
+ L=1.858E-07
+ Is=60.2316
+ a=0.7624
+ L_Z0=0
+ L_EL=0
+ L_F0=0E6
+ PkZ=320.764712
.ends XGL5030-181_freq

*======================================================================
* SPICE Model generated by Coilcraft
* Coilcraft Part Number : XGL5030-181
* Inductance = 180nH
*======================================================================
* Model Parameters:
*   Valid Frequency Range = 0.1MHz-300MHz
*   Ambient Temperature = 25 degC
*   Inductor Saturation Model
*   Use model for Time Domain simulations
*======================================================================
.subckt XGL5030-181_sat port1 port2 PARAMS: Cpar=6.3pF Ind=0.18uH
X1 port1 port2 Model1C PARAMS:
+ R1=5.6
+ R2=0.0016
+ C= {Cpar}
+ K1=0.000001
+ K2=0.028
+ K3= {Ind}
+ K4=0.000001
+ K5=0.000001
+ L=1.858E-07
+ Is=60.2316
+ a=0.7624
+ L_Z0=0
+ L_EL=0
+ L_F0=0E6
+ PkZ=320.764712
.ends XGL5030-181_sat

*======================================================================
* SPICE Model generated by Coilcraft
* Coilcraft Part Number : XGL5030-351
* Inductance = 350nH
*======================================================================
* Model Parameters:
*   Valid Frequency Range = 0.1MHz-250MHz
*   Ambient Temperature = 25 degC
*   Inductor Frequency Model
*   Use model for Frequency Domain simulations
*======================================================================
.subckt XGL5030-351_freq port1 port2 PARAMS: Cpar=7.7pF Ind=0.35uH
X1 port1 port2 Model1A PARAMS:
+ R1=5.2
+ R2=0.0022
+ C= {Cpar}
+ K1=0.000001
+ K2=0.056
+ K3= {Ind}
+ K4=0.000001
+ K5=0.000001
+ L=3.566E-07
+ Is=48.9143
+ a=0.7562
+ L_Z0=0
+ L_EL=0
+ L_F0=0E6
+ PkZ=518.63497
.ends XGL5030-351_freq

*======================================================================
* SPICE Model generated by Coilcraft
* Coilcraft Part Number : XGL5030-351
* Inductance = 350nH
*======================================================================
* Model Parameters:
*   Valid Frequency Range = 0.1MHz-250MHz
*   Ambient Temperature = 25 degC
*   Inductor Saturation Model
*   Use model for Time Domain simulations
*======================================================================
.subckt XGL5030-351_sat port1 port2 PARAMS: Cpar=7.7pF Ind=0.35uH
X1 port1 port2 Model1C PARAMS:
+ R1=5.2
+ R2=0.0022
+ C= {Cpar}
+ K1=0.000001
+ K2=0.056
+ K3= {Ind}
+ K4=0.000001
+ K5=0.000001
+ L=3.566E-07
+ Is=48.9143
+ a=0.7562
+ L_Z0=0
+ L_EL=0
+ L_F0=0E6
+ PkZ=518.63497
.ends XGL5030-351_sat

*======================================================================
* SPICE Model generated by Coilcraft
* Coilcraft Part Number : XGL5030-401
* Inductance = 400nH
*======================================================================
* Model Parameters:
*   Valid Frequency Range = 0.1MHz-250MHz
*   Ambient Temperature = 25 degC
*   Inductor Frequency Model
*   Use model for Frequency Domain simulations
*======================================================================
.subckt XGL5030-401_freq port1 port2 PARAMS: Cpar=8.1pF Ind=0.4uH
X1 port1 port2 Model1A PARAMS:
+ R1=4.5
+ R2=0.0027
+ C= {Cpar}
+ K1=0.000001
+ K2=0.061
+ K3= {Ind}
+ K4=0.000001
+ K5=0.000001
+ L=3.73E-07
+ Is=45.1201
+ a=0.7679
+ L_Z0=0
+ L_EL=0
+ L_F0=0E6
+ PkZ=545.059148
.ends XGL5030-401_freq

*======================================================================
* SPICE Model generated by Coilcraft
* Coilcraft Part Number : XGL5030-401
* Inductance = 400nH
*======================================================================
* Model Parameters:
*   Valid Frequency Range = 0.1MHz-250MHz
*   Ambient Temperature = 25 degC
*   Inductor Saturation Model
*   Use model for Time Domain simulations
*======================================================================
.subckt XGL5030-401_sat port1 port2 PARAMS: Cpar=8.1pF Ind=0.4uH
X1 port1 port2 Model1C PARAMS:
+ R1=4.5
+ R2=0.0027
+ C= {Cpar}
+ K1=0.000001
+ K2=0.061
+ K3= {Ind}
+ K4=0.000001
+ K5=0.000001
+ L=3.73E-07
+ Is=45.1201
+ a=0.7679
+ L_Z0=0
+ L_EL=0
+ L_F0=0E6
+ PkZ=545.059148
.ends XGL5030-401_sat

*======================================================================
* SPICE Model generated by Coilcraft
* Coilcraft Part Number : XGL5030-521
* Inductance = 520nH
*======================================================================
* Model Parameters:
*   Valid Frequency Range = 0.1MHz-250MHz
*   Ambient Temperature = 25 degC
*   Inductor Frequency Model
*   Use model for Frequency Domain simulations
*======================================================================
.subckt XGL5030-521_freq port1 port2 PARAMS: Cpar=8.3pF Ind=0.52uH
X1 port1 port2 Model1A PARAMS:
+ R1=6.2
+ R2=0.003
+ C= {Cpar}
+ K1=0.000001
+ K2=0.083
+ K3= {Ind}
+ K4=0.000001
+ K5=0.000001
+ L=5.278E-07
+ Is=42.4277
+ a=0.7311
+ L_Z0=0
+ L_EL=0
+ L_F0=0E6
+ PkZ=677.712022
.ends XGL5030-521_freq

*======================================================================
* SPICE Model generated by Coilcraft
* Coilcraft Part Number : XGL5030-521
* Inductance = 520nH
*======================================================================
* Model Parameters:
*   Valid Frequency Range = 0.1MHz-250MHz
*   Ambient Temperature = 25 degC
*   Inductor Saturation Model
*   Use model for Time Domain simulations
*======================================================================
.subckt XGL5030-521_sat port1 port2 PARAMS: Cpar=8.3pF Ind=0.52uH
X1 port1 port2 Model1C PARAMS:
+ R1=6.2
+ R2=0.003
+ C= {Cpar}
+ K1=0.000001
+ K2=0.083
+ K3= {Ind}
+ K4=0.000001
+ K5=0.000001
+ L=5.278E-07
+ Is=42.4277
+ a=0.7311
+ L_Z0=0
+ L_EL=0
+ L_F0=0E6
+ PkZ=677.712022
.ends XGL5030-521_sat

*======================================================================
* SPICE Model generated by Coilcraft
* Coilcraft Part Number : XGL5030-601
* Inductance = 600nH
*======================================================================
* Model Parameters:
*   Valid Frequency Range = 0.1MHz-250MHz
*   Ambient Temperature = 25 degC
*   Inductor Frequency Model
*   Use model for Frequency Domain simulations
*======================================================================
.subckt XGL5030-601_freq port1 port2 PARAMS: Cpar=9.6pF Ind=0.6uH
X1 port1 port2 Model1A PARAMS:
+ R1=5.3
+ R2=0.0032
+ C= {Cpar}
+ K1=0.000001
+ K2=0.097
+ K3= {Ind}
+ K4=0.000001
+ K5=0.000001
+ L=5.986E-07
+ Is=38.2784
+ a=0.7476
+ L_Z0=0
+ L_EL=0
+ L_F0=0E6
+ PkZ=740.27074
.ends XGL5030-601_freq

*======================================================================
* SPICE Model generated by Coilcraft
* Coilcraft Part Number : XGL5030-601
* Inductance = 600nH
*======================================================================
* Model Parameters:
*   Valid Frequency Range = 0.1MHz-250MHz
*   Ambient Temperature = 25 degC
*   Inductor Saturation Model
*   Use model for Time Domain simulations
*======================================================================
.subckt XGL5030-601_sat port1 port2 PARAMS: Cpar=9.6pF Ind=0.6uH
X1 port1 port2 Model1C PARAMS:
+ R1=5.3
+ R2=0.0032
+ C= {Cpar}
+ K1=0.000001
+ K2=0.097
+ K3= {Ind}
+ K4=0.000001
+ K5=0.000001
+ L=5.986E-07
+ Is=38.2784
+ a=0.7476
+ L_Z0=0
+ L_EL=0
+ L_F0=0E6
+ PkZ=740.27074
.ends XGL5030-601_sat

*======================================================================
* SPICE Model generated by Coilcraft
* Coilcraft Part Number : XGL5030-651
* Inductance = 650nH
*======================================================================
* Model Parameters:
*   Valid Frequency Range = 0.1MHz-200MHz
*   Ambient Temperature = 25 degC
*   Inductor Frequency Model
*   Use model for Frequency Domain simulations
*======================================================================
.subckt XGL5030-651_freq port1 port2 PARAMS: Cpar=8pF Ind=0.65uH
X1 port1 port2 Model1A PARAMS:
+ R1=4.1
+ R2=0.004
+ C= {Cpar}
+ K1=0.000001
+ K2=0.096
+ K3= {Ind}
+ K4=0.000001
+ K5=0.000001
+ L=6.201E-07
+ Is=36.2253
+ a=0.7593
+ L_Z0=0
+ L_EL=0
+ L_F0=0E6
+ PkZ=770.76579
.ends XGL5030-651_freq

*======================================================================
* SPICE Model generated by Coilcraft
* Coilcraft Part Number : XGL5030-651
* Inductance = 650nH
*======================================================================
* Model Parameters:
*   Valid Frequency Range = 0.1MHz-200MHz
*   Ambient Temperature = 25 degC
*   Inductor Saturation Model
*   Use model for Time Domain simulations
*======================================================================
.subckt XGL5030-651_sat port1 port2 PARAMS: Cpar=8pF Ind=0.65uH
X1 port1 port2 Model1C PARAMS:
+ R1=4.1
+ R2=0.004
+ C= {Cpar}
+ K1=0.000001
+ K2=0.096
+ K3= {Ind}
+ K4=0.000001
+ K5=0.000001
+ L=6.201E-07
+ Is=36.2253
+ a=0.7593
+ L_Z0=0
+ L_EL=0
+ L_F0=0E6
+ PkZ=770.76579
.ends XGL5030-651_sat

*======================================================================
* SPICE Model generated by Coilcraft
* Coilcraft Part Number : XGL5030-821
* Inductance = 820nH
*======================================================================
* Model Parameters:
*   Valid Frequency Range = 0.1MHz-200MHz
*   Ambient Temperature = 25 degC
*   Inductor Frequency Model
*   Use model for Frequency Domain simulations
*======================================================================
.subckt XGL5030-821_freq port1 port2 PARAMS: Cpar=9.1pF Ind=0.82uH
X1 port1 port2 Model1A PARAMS:
+ R1=4.1
+ R2=0.0046
+ C= {Cpar}
+ K1=0.00005
+ K2=0.129
+ K3= {Ind}
+ K4=0.000001
+ K5=0.000001
+ L=7.334E-07
+ Is=32.8792
+ a=0.6858
+ L_Z0=0
+ L_EL=0
+ L_F0=0E6
+ PkZ=938.702178
.ends XGL5030-821_freq

*======================================================================
* SPICE Model generated by Coilcraft
* Coilcraft Part Number : XGL5030-821
* Inductance = 820nH
*======================================================================
* Model Parameters:
*   Valid Frequency Range = 0.1MHz-200MHz
*   Ambient Temperature = 25 degC
*   Inductor Saturation Model
*   Use model for Time Domain simulations
*======================================================================
.subckt XGL5030-821_sat port1 port2 PARAMS: Cpar=9.1pF Ind=0.82uH
X1 port1 port2 Model1C PARAMS:
+ R1=4.1
+ R2=0.0046
+ C= {Cpar}
+ K1=0.00005
+ K2=0.129
+ K3= {Ind}
+ K4=0.000001
+ K5=0.000001
+ L=7.334E-07
+ Is=32.8792
+ a=0.6858
+ L_Z0=0
+ L_EL=0
+ L_F0=0E6
+ PkZ=938.702178
.ends XGL5030-821_sat

*======================================================================
* SPICE Model generated by Coilcraft
* Coilcraft Part Number : XGL5030-901
* Inductance = 900nH
*======================================================================
* Model Parameters:
*   Valid Frequency Range = 0.1MHz-200MHz
*   Ambient Temperature = 25 degC
*   Inductor Frequency Model
*   Use model for Frequency Domain simulations
*======================================================================
.subckt XGL5030-901_freq port1 port2 PARAMS: Cpar=7.8pF Ind=0.9uH
X1 port1 port2 Model1A PARAMS:
+ R1=4.8
+ R2=0.0052
+ C= {Cpar}
+ K1=0.00005
+ K2=0.14
+ K3= {Ind}
+ K4=0.000001
+ K5=0.000001
+ L=9.491E-07
+ Is=30.2894
+ a=0.6963
+ L_Z0=0
+ L_EL=0
+ L_F0=0E6
+ PkZ=1034.60488
.ends XGL5030-901_freq

*======================================================================
* SPICE Model generated by Coilcraft
* Coilcraft Part Number : XGL5030-901
* Inductance = 900nH
*======================================================================
* Model Parameters:
*   Valid Frequency Range = 0.1MHz-200MHz
*   Ambient Temperature = 25 degC
*   Inductor Saturation Model
*   Use model for Time Domain simulations
*======================================================================
.subckt XGL5030-901_sat port1 port2 PARAMS: Cpar=7.8pF Ind=0.9uH
X1 port1 port2 Model1C PARAMS:
+ R1=4.8
+ R2=0.0052
+ C= {Cpar}
+ K1=0.00005
+ K2=0.14
+ K3= {Ind}
+ K4=0.000001
+ K5=0.000001
+ L=9.491E-07
+ Is=30.2894
+ a=0.6963
+ L_Z0=0
+ L_EL=0
+ L_F0=0E6
+ PkZ=1034.60488
.ends XGL5030-901_sat

*======================================================================
* SPICE Model generated by Coilcraft
* Coilcraft Part Number : XGL5030-102
* Inductance = 1uH
*======================================================================
* Model Parameters:
*   Valid Frequency Range = 0.1MHz-200MHz
*   Ambient Temperature = 25 degC
*   Inductor Frequency Model
*   Use model for Frequency Domain simulations
*======================================================================
.subckt XGL5030-102_freq port1 port2 PARAMS: Cpar=8.6pF Ind=1uH
X1 port1 port2 Model1A PARAMS:
+ R1=4.2
+ R2=0.0058
+ C= {Cpar}
+ K1=0.000025
+ K2=0.174
+ K3= {Ind}
+ K4=0.000001
+ K5=0.000001
+ L=1.0069E-06
+ Is=28.8605
+ a=0.7011
+ L_Z0=0
+ L_EL=0
+ L_F0=0E6
+ PkZ=1222.76146
.ends XGL5030-102_freq

*======================================================================
* SPICE Model generated by Coilcraft
* Coilcraft Part Number : XGL5030-102
* Inductance = 1uH
*======================================================================
* Model Parameters:
*   Valid Frequency Range = 0.1MHz-200MHz
*   Ambient Temperature = 25 degC
*   Inductor Saturation Model
*   Use model for Time Domain simulations
*======================================================================
.subckt XGL5030-102_sat port1 port2 PARAMS: Cpar=8.6pF Ind=1uH
X1 port1 port2 Model1C PARAMS:
+ R1=4.2
+ R2=0.0058
+ C= {Cpar}
+ K1=0.000025
+ K2=0.174
+ K3= {Ind}
+ K4=0.000001
+ K5=0.000001
+ L=1.0069E-06
+ Is=28.8605
+ a=0.7011
+ L_Z0=0
+ L_EL=0
+ L_F0=0E6
+ PkZ=1222.76146
.ends XGL5030-102_sat

*======================================================================
* SPICE Model generated by Coilcraft
* Coilcraft Part Number : XGL5030-122
* Inductance = 1.2uH
*======================================================================
* Model Parameters:
*   Valid Frequency Range = 0.1MHz-200MHz
*   Ambient Temperature = 25 degC
*   Inductor Frequency Model
*   Use model for Frequency Domain simulations
*======================================================================
.subckt XGL5030-122_freq port1 port2 PARAMS: Cpar=8.8pF Ind=1.2uH
X1 port1 port2 Model1A PARAMS:
+ R1=5.2
+ R2=0.006
+ C= {Cpar}
+ K1=0.0001
+ K2=0.183
+ K3= {Ind}
+ K4=0.000001
+ K5=0.000001
+ L=1.1647E-06
+ Is=25.7811
+ a=0.7052
+ L_Z0=0
+ L_EL=0
+ L_F0=0E6
+ PkZ=1213.47373
.ends XGL5030-122_freq

*======================================================================
* SPICE Model generated by Coilcraft
* Coilcraft Part Number : XGL5030-122
* Inductance = 1.2uH
*======================================================================
* Model Parameters:
*   Valid Frequency Range = 0.1MHz-200MHz
*   Ambient Temperature = 25 degC
*   Inductor Saturation Model
*   Use model for Time Domain simulations
*======================================================================
.subckt XGL5030-122_sat port1 port2 PARAMS: Cpar=8.8pF Ind=1.2uH
X1 port1 port2 Model1C PARAMS:
+ R1=5.2
+ R2=0.006
+ C= {Cpar}
+ K1=0.0001
+ K2=0.183
+ K3= {Ind}
+ K4=0.000001
+ K5=0.000001
+ L=1.1647E-06
+ Is=25.7811
+ a=0.7052
+ L_Z0=0
+ L_EL=0
+ L_F0=0E6
+ PkZ=1213.47373
.ends XGL5030-122_sat

*======================================================================
* SPICE Model generated by Coilcraft
* Coilcraft Part Number : XGL5030-152
* Inductance = 1.5uH
*======================================================================
* Model Parameters:
*   Valid Frequency Range = 0.1MHz-200MHz
*   Ambient Temperature = 25 degC
*   Inductor Frequency Model
*   Use model for Frequency Domain simulations
*======================================================================
.subckt XGL5030-152_freq port1 port2 PARAMS: Cpar=8.5pF Ind=1.5uH
X1 port1 port2 Model1A PARAMS:
+ R1=5.2
+ R2=0.0079
+ C= {Cpar}
+ K1=0.000001
+ K2=0.262
+ K3= {Ind}
+ K4=0.000001
+ K5=0.000001
+ L=1.4325E-06
+ Is=25.253
+ a=0.6709
+ L_Z0=0
+ L_EL=0
+ L_F0=0E6
+ PkZ=1663.35571
.ends XGL5030-152_freq

*======================================================================
* SPICE Model generated by Coilcraft
* Coilcraft Part Number : XGL5030-152
* Inductance = 1.5uH
*======================================================================
* Model Parameters:
*   Valid Frequency Range = 0.1MHz-200MHz
*   Ambient Temperature = 25 degC
*   Inductor Saturation Model
*   Use model for Time Domain simulations
*======================================================================
.subckt XGL5030-152_sat port1 port2 PARAMS: Cpar=8.5pF Ind=1.5uH
X1 port1 port2 Model1C PARAMS:
+ R1=5.2
+ R2=0.0079
+ C= {Cpar}
+ K1=0.000001
+ K2=0.262
+ K3= {Ind}
+ K4=0.000001
+ K5=0.000001
+ L=1.4325E-06
+ Is=25.253
+ a=0.6709
+ L_Z0=0
+ L_EL=0
+ L_F0=0E6
+ PkZ=1663.35571
.ends XGL5030-152_sat

*======================================================================
* SPICE Model generated by Coilcraft
* Coilcraft Part Number : XGL5030-182
* Inductance = 1.8uH
*======================================================================
* Model Parameters:
*   Valid Frequency Range = 0.1MHz-200MHz
*   Ambient Temperature = 25 degC
*   Inductor Frequency Model
*   Use model for Frequency Domain simulations
*======================================================================
.subckt XGL5030-182_freq port1 port2 PARAMS: Cpar=9.7pF Ind=1.8uH
X1 port1 port2 Model1A PARAMS:
+ R1=5.8
+ R2=0.0087
+ C= {Cpar}
+ K1=0.000001
+ K2=0.284
+ K3= {Ind}
+ K4=0.000001
+ K5=0.000001
+ L=1.7975E-06
+ Is=21.8313
+ a=0.6959
+ L_Z0=0
+ L_EL=0
+ L_F0=0E6
+ PkZ=1661.63911
.ends XGL5030-182_freq

*======================================================================
* SPICE Model generated by Coilcraft
* Coilcraft Part Number : XGL5030-182
* Inductance = 1.8uH
*======================================================================
* Model Parameters:
*   Valid Frequency Range = 0.1MHz-200MHz
*   Ambient Temperature = 25 degC
*   Inductor Saturation Model
*   Use model for Time Domain simulations
*======================================================================
.subckt XGL5030-182_sat port1 port2 PARAMS: Cpar=9.7pF Ind=1.8uH
X1 port1 port2 Model1C PARAMS:
+ R1=5.8
+ R2=0.0087
+ C= {Cpar}
+ K1=0.000001
+ K2=0.284
+ K3= {Ind}
+ K4=0.000001
+ K5=0.000001
+ L=1.7975E-06
+ Is=21.8313
+ a=0.6959
+ L_Z0=0
+ L_EL=0
+ L_F0=0E6
+ PkZ=1661.63911
.ends XGL5030-182_sat

*======================================================================
* SPICE Model generated by Coilcraft
* Coilcraft Part Number : XGL5030-222
* Inductance = 2.2uH
*======================================================================
* Model Parameters:
*   Valid Frequency Range = 0.1MHz-100MHz
*   Ambient Temperature = 25 degC
*   Inductor Frequency Model
*   Use model for Frequency Domain simulations
*======================================================================
.subckt XGL5030-222_freq port1 port2 PARAMS: Cpar=9.2pF Ind=2.2uH
X1 port1 port2 Model1A PARAMS:
+ R1=6.2
+ R2=0.0106
+ C= {Cpar}
+ K1=0.000001
+ K2=0.357
+ K3= {Ind}
+ K4=0.000001
+ K5=0.000001
+ L=2.1258E-06
+ Is=21.1742
+ a=0.6639
+ L_Z0=0
+ L_EL=0
+ L_F0=0E6
+ PkZ=2012.49831
.ends XGL5030-222_freq

*======================================================================
* SPICE Model generated by Coilcraft
* Coilcraft Part Number : XGL5030-222
* Inductance = 2.2uH
*======================================================================
* Model Parameters:
*   Valid Frequency Range = 0.1MHz-100MHz
*   Ambient Temperature = 25 degC
*   Inductor Saturation Model
*   Use model for Time Domain simulations
*======================================================================
.subckt XGL5030-222_sat port1 port2 PARAMS: Cpar=9.2pF Ind=2.2uH
X1 port1 port2 Model1C PARAMS:
+ R1=6.2
+ R2=0.0106
+ C= {Cpar}
+ K1=0.000001
+ K2=0.357
+ K3= {Ind}
+ K4=0.000001
+ K5=0.000001
+ L=2.1258E-06
+ Is=21.1742
+ a=0.6639
+ L_Z0=0
+ L_EL=0
+ L_F0=0E6
+ PkZ=2012.49831
.ends XGL5030-222_sat

*======================================================================
* SPICE Model generated by Coilcraft
* Coilcraft Part Number : XGL5030-332
* Inductance = 3.3uH
*======================================================================
* Model Parameters:
*   Valid Frequency Range = 0.1MHz-100MHz
*   Ambient Temperature = 25 degC
*   Inductor Frequency Model
*   Use model for Frequency Domain simulations
*======================================================================
.subckt XGL5030-332_freq port1 port2 PARAMS: Cpar=9.4pF Ind=3.3uH
X1 port1 port2 Model1A PARAMS:
+ R1=4.8
+ R2=0.0149
+ C= {Cpar}
+ K1=0.0002
+ K2=0.609
+ K3= {Ind}
+ K4=0.000001
+ K5=0.000001
+ L=3.2559E-06
+ Is=16.7192
+ a=0.6863
+ L_Z0=0
+ L_EL=0
+ L_F0=0E6
+ PkZ=3087.48089
.ends XGL5030-332_freq

*======================================================================
* SPICE Model generated by Coilcraft
* Coilcraft Part Number : XGL5030-332
* Inductance = 3.3uH
*======================================================================
* Model Parameters:
*   Valid Frequency Range = 0.1MHz-100MHz
*   Ambient Temperature = 25 degC
*   Inductor Saturation Model
*   Use model for Time Domain simulations
*======================================================================
.subckt XGL5030-332_sat port1 port2 PARAMS: Cpar=9.4pF Ind=3.3uH
X1 port1 port2 Model1C PARAMS:
+ R1=4.8
+ R2=0.0149
+ C= {Cpar}
+ K1=0.0002
+ K2=0.609
+ K3= {Ind}
+ K4=0.000001
+ K5=0.000001
+ L=3.2559E-06
+ Is=16.7192
+ a=0.6863
+ L_Z0=0
+ L_EL=0
+ L_F0=0E6
+ PkZ=3087.48089
.ends XGL5030-332_sat

*======================================================================
* SPICE Model generated by Coilcraft
* Coilcraft Part Number : XGL5030-472
* Inductance = 4.7uH
*======================================================================
* Model Parameters:
*   Valid Frequency Range = 0.1MHz-100MHz
*   Ambient Temperature = 25 degC
*   Inductor Frequency Model
*   Use model for Frequency Domain simulations
*======================================================================
.subckt XGL5030-472_freq port1 port2 PARAMS: Cpar=9.9pF Ind=4.7uH
X1 port1 port2 Model1A PARAMS:
+ R1=5
+ R2=0.0245
+ C= {Cpar}
+ K1=0.00001
+ K2=0.84
+ K3= {Ind}
+ K4=0.000001
+ K5=0.000001
+ L=4.4984E-06
+ Is=13.0461
+ a=0.7097
+ L_Z0=0
+ L_EL=0
+ L_F0=0E6
+ PkZ=3889.68804
.ends XGL5030-472_freq

*======================================================================
* SPICE Model generated by Coilcraft
* Coilcraft Part Number : XGL5030-472
* Inductance = 4.7uH
*======================================================================
* Model Parameters:
*   Valid Frequency Range = 0.1MHz-100MHz
*   Ambient Temperature = 25 degC
*   Inductor Saturation Model
*   Use model for Time Domain simulations
*======================================================================
.subckt XGL5030-472_sat port1 port2 PARAMS: Cpar=9.9pF Ind=4.7uH
X1 port1 port2 Model1C PARAMS:
+ R1=5
+ R2=0.0245
+ C= {Cpar}
+ K1=0.00001
+ K2=0.84
+ K3= {Ind}
+ K4=0.000001
+ K5=0.000001
+ L=4.4984E-06
+ Is=13.0461
+ a=0.7097
+ L_Z0=0
+ L_EL=0
+ L_F0=0E6
+ PkZ=3889.68804
.ends XGL5030-472_sat

*======================================================================
* SPICE Model generated by Coilcraft
* Coilcraft Part Number : XGL5030-562
* Inductance = 5.6uH
*======================================================================
* Model Parameters:
*   Valid Frequency Range = 0.1MHz-100MHz
*   Ambient Temperature = 25 degC
*   Inductor Frequency Model
*   Use model for Frequency Domain simulations
*======================================================================
.subckt XGL5030-562_freq port1 port2 PARAMS: Cpar=8.9pF Ind=5.6uH
X1 port1 port2 Model1A PARAMS:
+ R1=5
+ R2=0.027
+ C= {Cpar}
+ K1=0.00001
+ K2=0.993
+ K3= {Ind}
+ K4=0.000001
+ K5=0.000001
+ L=5.7731E-06
+ Is=11.9247
+ a=0.6957
+ L_Z0=0
+ L_EL=0
+ L_F0=0E6
+ PkZ=4543.02667
.ends XGL5030-562_freq

*======================================================================
* SPICE Model generated by Coilcraft
* Coilcraft Part Number : XGL5030-562
* Inductance = 5.6uH
*======================================================================
* Model Parameters:
*   Valid Frequency Range = 0.1MHz-100MHz
*   Ambient Temperature = 25 degC
*   Inductor Saturation Model
*   Use model for Time Domain simulations
*======================================================================
.subckt XGL5030-562_sat port1 port2 PARAMS: Cpar=8.9pF Ind=5.6uH
X1 port1 port2 Model1C PARAMS:
+ R1=5
+ R2=0.027
+ C= {Cpar}
+ K1=0.00001
+ K2=0.993
+ K3= {Ind}
+ K4=0.000001
+ K5=0.000001
+ L=5.7731E-06
+ Is=11.9247
+ a=0.6957
+ L_Z0=0
+ L_EL=0
+ L_F0=0E6
+ PkZ=4543.02667
.ends XGL5030-562_sat

*======================================================================
* SPICE Model generated by Coilcraft
* Coilcraft Part Number : XGL5030-682
* Inductance = 6.8uH
*======================================================================
* Model Parameters:
*   Valid Frequency Range = 0.1MHz-100MHz
*   Ambient Temperature = 25 degC
*   Inductor Frequency Model
*   Use model for Frequency Domain simulations
*======================================================================
.subckt XGL5030-682_freq port1 port2 PARAMS: Cpar=10pF Ind=6.8uH
X1 port1 port2 Model1A PARAMS:
+ R1=6.4
+ R2=0.0321
+ C= {Cpar}
+ K1=0.00001
+ K2=1.26
+ K3= {Ind}
+ K4=0.000001
+ K5=0.000001
+ L=6.7713E-06
+ Is=11.033
+ a=0.6928
+ L_Z0=0
+ L_EL=0
+ L_F0=0E6
+ PkZ=5259.60792
.ends XGL5030-682_freq

*======================================================================
* SPICE Model generated by Coilcraft
* Coilcraft Part Number : XGL5030-682
* Inductance = 6.8uH
*======================================================================
* Model Parameters:
*   Valid Frequency Range = 0.1MHz-100MHz
*   Ambient Temperature = 25 degC
*   Inductor Saturation Model
*   Use model for Time Domain simulations
*======================================================================
.subckt XGL5030-682_sat port1 port2 PARAMS: Cpar=10pF Ind=6.8uH
X1 port1 port2 Model1C PARAMS:
+ R1=6.4
+ R2=0.0321
+ C= {Cpar}
+ K1=0.00001
+ K2=1.26
+ K3= {Ind}
+ K4=0.000001
+ K5=0.000001
+ L=6.7713E-06
+ Is=11.033
+ a=0.6928
+ L_Z0=0
+ L_EL=0
+ L_F0=0E6
+ PkZ=5259.60792
.ends XGL5030-682_sat

*======================================================================
* SPICE Model generated by Coilcraft
* Coilcraft Part Number : XGL5030-822
* Inductance = 8.2uH
*======================================================================
* Model Parameters:
*   Valid Frequency Range = 0.1MHz-100MHz
*   Ambient Temperature = 25 degC
*   Inductor Frequency Model
*   Use model for Frequency Domain simulations
*======================================================================
.subckt XGL5030-822_freq port1 port2 PARAMS: Cpar=10.1pF Ind=8.2uH
X1 port1 port2 Model1A PARAMS:
+ R1=6
+ R2=0.041
+ C= {Cpar}
+ K1=0.00004
+ K2=1.53
+ K3= {Ind}
+ K4=0.000001
+ K5=0.000001
+ L=7.9795E-06
+ Is=10.2864
+ a=0.6886
+ L_Z0=0
+ L_EL=0
+ L_F0=0E6
+ PkZ=6101.83038
.ends XGL5030-822_freq

*======================================================================
* SPICE Model generated by Coilcraft
* Coilcraft Part Number : XGL5030-822
* Inductance = 8.2uH
*======================================================================
* Model Parameters:
*   Valid Frequency Range = 0.1MHz-100MHz
*   Ambient Temperature = 25 degC
*   Inductor Saturation Model
*   Use model for Time Domain simulations
*======================================================================
.subckt XGL5030-822_sat port1 port2 PARAMS: Cpar=10.1pF Ind=8.2uH
X1 port1 port2 Model1C PARAMS:
+ R1=6
+ R2=0.041
+ C= {Cpar}
+ K1=0.00004
+ K2=1.53
+ K3= {Ind}
+ K4=0.000001
+ K5=0.000001
+ L=7.9795E-06
+ Is=10.2864
+ a=0.6886
+ L_Z0=0
+ L_EL=0
+ L_F0=0E6
+ PkZ=6101.83038
.ends XGL5030-822_sat

*======================================================================
* SPICE Model generated by Coilcraft
* Coilcraft Part Number : XGL5030-103
* Inductance = 10uH
*======================================================================
* Model Parameters:
*   Valid Frequency Range = 0.1MHz-100MHz
*   Ambient Temperature = 25 degC
*   Inductor Frequency Model
*   Use model for Frequency Domain simulations
*======================================================================
.subckt XGL5030-103_freq port1 port2 PARAMS: Cpar=10.8pF Ind=10uH
X1 port1 port2 Model1A PARAMS:
+ R1=5.7
+ R2=0.0484
+ C= {Cpar}
+ K1=0.00004
+ K2=1.77
+ K3= {Ind}
+ K4=0.000001
+ K5=0.000001
+ L=9.2229E-06
+ Is=9.3654
+ a=0.6809