*======================================================================
* SPICE Model generated by Coilcraft
* Coilcraft Part Number : XGL6030-181
* Inductance = 180nH
*======================================================================
* Model Parameters:
*   Valid Frequency Range = 0.1MHz-300MHz
*   Ambient Temperature = 25 degC
*   Inductor Frequency Model
*   Use model for Frequency Domain simulations
*======================================================================
.subckt XGL6030-181_freq port1 port2 PARAMS: Cpar=7.4pF Ind=0.18uH
X1 port1 port2 Model1A PARAMS:
+ R1=6
+ R2=0.0012
+ C= {Cpar}
+ K1=0.000001
+ K2=0.031
+ K3= {Ind}
+ K4=0.000001
+ K5=0.000001
+ L=1.682E-07
+ Is=92.8673
+ a=0.698
+ L_Z0=0
+ L_EL=0
+ L_F0=0E6
+ PkZ=334.029282
.ends XGL6030-181_freq

*======================================================================
* SPICE Model generated by Coilcraft
* Coilcraft Part Number : XGL6030-181
* Inductance = 180nH
*======================================================================
* Model Parameters:
*   Valid Frequency Range = 0.1MHz-300MHz
*   Ambient Temperature = 25 degC
*   Inductor Saturation Model
*   Use model for Time Domain simulations
*======================================================================
.subckt XGL6030-181_sat port1 port2 PARAMS: Cpar=7.4pF Ind=0.18uH
X1 port1 port2 Model1C PARAMS:
+ R1=6
+ R2=0.0012
+ C= {Cpar}
+ K1=0.000001
+ K2=0.031
+ K3= {Ind}
+ K4=0.000001
+ K5=0.000001
+ L=1.682E-07
+ Is=92.8673
+ a=0.698
+ L_Z0=0
+ L_EL=0
+ L_F0=0E6
+ PkZ=334.029282
.ends XGL6030-181_sat

*======================================================================
* SPICE Model generated by Coilcraft
* Coilcraft Part Number : XGL6030-221
* Inductance = 220nH
*======================================================================
* Model Parameters:
*   Valid Frequency Range = 0.1MHz-250MHz
*   Ambient Temperature = 25 degC
*   Inductor Frequency Model
*   Use model for Frequency Domain simulations
*======================================================================
.subckt XGL6030-221_freq port1 port2 PARAMS: Cpar=7.4pF Ind=0.2uH
X1 port1 port2 Model1A PARAMS:
+ R1=7
+ R2=0.0015
+ C= {Cpar}
+ K1=0.000001
+ K2=0.032
+ K3= {Ind}
+ K4=0.000001
+ K5=0.000001
+ L=1.879E-07
+ Is=83.246
+ a=0.7153
+ L_Z0=0
+ L_EL=0
+ L_F0=0E6
+ PkZ=334.324461
.ends XGL6030-221_freq

*======================================================================
* SPICE Model generated by Coilcraft
* Coilcraft Part Number : XGL6030-221
* Inductance = 220nH
*======================================================================
* Model Parameters:
*   Valid Frequency Range = 0.1MHz-250MHz
*   Ambient Temperature = 25 degC
*   Inductor Saturation Model
*   Use model for Time Domain simulations
*======================================================================
.subckt XGL6030-221_sat port1 port2 PARAMS: Cpar=7.4pF Ind=0.2uH
X1 port1 port2 Model1C PARAMS:
+ R1=7
+ R2=0.0015
+ C= {Cpar}
+ K1=0.000001
+ K2=0.032
+ K3= {Ind}
+ K4=0.000001
+ K5=0.000001
+ L=1.879E-07
+ Is=83.246
+ a=0.7153
+ L_Z0=0
+ L_EL=0
+ L_F0=0E6
+ PkZ=334.324461
.ends XGL6030-221_sat

*======================================================================
* SPICE Model generated by Coilcraft
* Coilcraft Part Number : XGL6030-381
* Inductance = 380nH
*======================================================================
* Model Parameters:
*   Valid Frequency Range = 0.1MHz-200MHz
*   Ambient Temperature = 25 degC
*   Inductor Frequency Model
*   Use model for Frequency Domain simulations
*======================================================================
.subckt XGL6030-381_freq port1 port2 PARAMS: Cpar=11.8pF Ind=0.38uH
X1 port1 port2 Model1A PARAMS:
+ R1=5
+ R2=0.0024
+ C= {Cpar}
+ K1=0.000001
+ K2=0.075
+ K3= {Ind}
+ K4=0.000001
+ K5=0.000001
+ L=3.821E-07
+ Is=62.4111
+ a=0.7109
+ L_Z0=0
+ L_EL=0
+ L_F0=0E6
+ PkZ=590.539067
.ends XGL6030-381_freq

*======================================================================
* SPICE Model generated by Coilcraft
* Coilcraft Part Number : XGL6030-381
* Inductance = 380nH
*======================================================================
* Model Parameters:
*   Valid Frequency Range = 0.1MHz-200MHz
*   Ambient Temperature = 25 degC
*   Inductor Saturation Model
*   Use model for Time Domain simulations
*======================================================================
.subckt XGL6030-381_sat port1 port2 PARAMS: Cpar=11.8pF Ind=0.38uH
X1 port1 port2 Model1C PARAMS:
+ R1=5
+ R2=0.0024
+ C= {Cpar}
+ K1=0.000001
+ K2=0.075
+ K3= {Ind}
+ K4=0.000001
+ K5=0.000001
+ L=3.821E-07
+ Is=62.4111
+ a=0.7109
+ L_Z0=0
+ L_EL=0
+ L_F0=0E6
+ PkZ=590.539067
.ends XGL6030-381_sat

*======================================================================
* SPICE Model generated by Coilcraft
* Coilcraft Part Number : XGL6030-471
* Inductance = 470nH
*======================================================================
* Model Parameters:
*   Valid Frequency Range = 0.1MHz-200MHz
*   Ambient Temperature = 25 degC
*   Inductor Frequency Model
*   Use model for Frequency Domain simulations
*======================================================================
.subckt XGL6030-471_freq port1 port2 PARAMS: Cpar=11.9pF Ind=0.47uH
X1 port1 port2 Model1A PARAMS:
+ R1=6
+ R2=0.0027
+ C= {Cpar}
+ K1=0.000001
+ K2=0.076
+ K3= {Ind}
+ K4=0.000001
+ K5=0.000001
+ L=4.206E-07
+ Is=55.9578
+ a=0.7216
+ L_Z0=0
+ L_EL=0
+ L_F0=0E6
+ PkZ=569.502816
.ends XGL6030-471_freq

*======================================================================
* SPICE Model generated by Coilcraft
* Coilcraft Part Number : XGL6030-471
* Inductance = 470nH
*======================================================================
* Model Parameters:
*   Valid Frequency Range = 0.1MHz-200MHz
*   Ambient Temperature = 25 degC
*   Inductor Saturation Model
*   Use model for Time Domain simulations
*======================================================================
.subckt XGL6030-471_sat port1 port2 PARAMS: Cpar=11.9pF Ind=0.47uH
X1 port1 port2 Model1C PARAMS:
+ R1=6
+ R2=0.0027
+ C= {Cpar}
+ K1=0.000001
+ K2=0.076
+ K3= {Ind}
+ K4=0.000001
+ K5=0.000001
+ L=4.206E-07
+ Is=55.9578
+ a=0.7216
+ L_Z0=0
+ L_EL=0
+ L_F0=0E6
+ PkZ=569.502816
.ends XGL6030-471_sat

*======================================================================
* SPICE Model generated by Coilcraft
* Coilcraft Part Number : XGL6030-681
* Inductance = 680nH
*======================================================================
* Model Parameters:
*   Valid Frequency Range = 0.1MHz-200MHz
*   Ambient Temperature = 25 degC
*   Inductor Frequency Model
*   Use model for Frequency Domain simulations
*======================================================================
.subckt XGL6030-681_freq port1 port2 PARAMS: Cpar=13.4pF Ind=0.68uH
X1 port1 port2 Model1A PARAMS:
+ R1=6
+ R2=0.0035
+ C= {Cpar}
+ K1=0.000001
+ K2=0.127
+ K3= {Ind}
+ K4=0.000001
+ K5=0.000001
+ L=6.424E-07
+ Is=48.4676
+ a=0.6939
+ L_Z0=0
+ L_EL=0
+ L_F0=0E6
+ PkZ=831.467343
.ends XGL6030-681_freq

*======================================================================
* SPICE Model generated by Coilcraft
* Coilcraft Part Number : XGL6030-681
* Inductance = 680nH
*======================================================================
* Model Parameters:
*   Valid Frequency Range = 0.1MHz-200MHz
*   Ambient Temperature = 25 degC
*   Inductor Saturation Model
*   Use model for Time Domain simulations
*======================================================================
.subckt XGL6030-681_sat port1 port2 PARAMS: Cpar=13.4pF Ind=0.68uH
X1 port1 port2 Model1C PARAMS:
+ R1=6
+ R2=0.0035
+ C= {Cpar}
+ K1=0.000001
+ K2=0.127
+ K3= {Ind}
+ K4=0.000001
+ K5=0.000001
+ L=6.424E-07
+ Is=48.4676
+ a=0.6939
+ L_Z0=0
+ L_EL=0
+ L_F0=0E6
+ PkZ=831.467343
.ends XGL6030-681_sat

*======================================================================
* SPICE Model generated by Coilcraft
* Coilcraft Part Number : XGL6030-821
* Inductance = 820nH
*======================================================================
* Model Parameters:
*   Valid Frequency Range = 0.1MHz-200MHz
*   Ambient Temperature = 25 degC
*   Inductor Frequency Model
*   Use model for Frequency Domain simulations
*======================================================================
.subckt XGL6030-821_freq port1 port2 PARAMS: Cpar=11.9pF Ind=0.8uH
X1 port1 port2 Model1A PARAMS:
+ R1=6
+ R2=0.004
+ C= {Cpar}
+ K1=0.000001
+ K2=0.14
+ K3= {Ind}
+ K4=0.000001
+ K5=0.000001
+ L=7.056E-07
+ Is=44.3073
+ a=0.7277
+ L_Z0=0
+ L_EL=0
+ L_F0=0E6
+ PkZ=922.642869
.ends XGL6030-821_freq

*======================================================================
* SPICE Model generated by Coilcraft
* Coilcraft Part Number : XGL6030-821
* Inductance = 820nH
*======================================================================
* Model Parameters:
*   Valid Frequency Range = 0.1MHz-200MHz
*   Ambient Temperature = 25 degC
*   Inductor Saturation Model
*   Use model for Time Domain simulations
*======================================================================
.subckt XGL6030-821_sat port1 port2 PARAMS: Cpar=11.9pF Ind=0.8uH
X1 port1 port2 Model1C PARAMS:
+ R1=6
+ R2=0.004
+ C= {Cpar}
+ K1=0.000001
+ K2=0.14
+ K3= {Ind}
+ K4=0.000001
+ K5=0.000001
+ L=7.056E-07
+ Is=44.3073
+ a=0.7277
+ L_Z0=0
+ L_EL=0
+ L_F0=0E6
+ PkZ=922.642869
.ends XGL6030-821_sat

*======================================================================
* SPICE Model generated by Coilcraft
* Coilcraft Part Number : XGL6030-102
* Inductance = 1uH
*======================================================================
* Model Parameters:
*   Valid Frequency Range = 0.1MHz-200MHz
*   Ambient Temperature = 25 degC
*   Inductor Frequency Model
*   Use model for Frequency Domain simulations
*======================================================================
.subckt XGL6030-102_freq port1 port2 PARAMS: Cpar=14pF Ind=1uH
X1 port1 port2 Model1A PARAMS:
+ R1=5
+ R2=0.0049
+ C= {Cpar}
+ K1=0.000001
+ K2=0.204
+ K3= {Ind}
+ K4=0.000001
+ K5=0.000001
+ L=1.0387E-06
+ Is=38.2525
+ a=0.7088
+ L_Z0=0
+ L_EL=0
+ L_F0=0E6
+ PkZ=1217.0295
.ends XGL6030-102_freq

*======================================================================
* SPICE Model generated by Coilcraft
* Coilcraft Part Number : XGL6030-102
* Inductance = 1uH
*======================================================================
* Model Parameters:
*   Valid Frequency Range = 0.1MHz-200MHz
*   Ambient Temperature = 25 degC
*   Inductor Saturation Model
*   Use model for Time Domain simulations
*======================================================================
.subckt XGL6030-102_sat port1 port2 PARAMS: Cpar=14pF Ind=1uH
X1 port1 port2 Model1C PARAMS:
+ R1=5
+ R2=0.0049
+ C= {Cpar}
+ K1=0.000001
+ K2=0.204
+ K3= {Ind}
+ K4=0.000001
+ K5=0.000001
+ L=1.0387E-06
+ Is=38.2525
+ a=0.7088
+ L_Z0=0
+ L_EL=0
+ L_F0=0E6
+ PkZ=1217.0295
.ends XGL6030-102_sat

*======================================================================
* SPICE Model generated by Coilcraft
* Coilcraft Part Number : XGL6030-122
* Inductance = 1.2uH
*======================================================================
* Model Parameters:
*   Valid Frequency Range = 0.1MHz-150MHz
*   Ambient Temperature = 25 degC
*   Inductor Frequency Model
*   Use model for Frequency Domain simulations
*======================================================================
.subckt XGL6030-122_freq port1 port2 PARAMS: Cpar=12.1pF Ind=1.2uH
X1 port1 port2 Model1A PARAMS:
+ R1=4
+ R2=0.0054
+ C= {Cpar}
+ K1=0.000001
+ K2=0.208
+ K3= {Ind}
+ K4=0.000001
+ K5=0.000001
+ L=1.0984E-06
+ Is=35.7435
+ a=0.741
+ L_Z0=0
+ L_EL=0
+ L_F0=0E6
+ PkZ=1275.0309
.ends XGL6030-122_freq

*======================================================================
* SPICE Model generated by Coilcraft
* Coilcraft Part Number : XGL6030-122
* Inductance = 1.2uH
*======================================================================
* Model Parameters:
*   Valid Frequency Range = 0.1MHz-150MHz
*   Ambient Temperature = 25 degC
*   Inductor Saturation Model
*   Use model for Time Domain simulations
*======================================================================
.subckt XGL6030-122_sat port1 port2 PARAMS: Cpar=12.1pF Ind=1.2uH
X1 port1 port2 Model1C PARAMS:
+ R1=4
+ R2=0.0054
+ C= {Cpar}
+ K1=0.000001
+ K2=0.208
+ K3= {Ind}
+ K4=0.000001
+ K5=0.000001
+ L=1.0984E-06
+ Is=35.7435
+ a=0.741
+ L_Z0=0
+ L_EL=0
+ L_F0=0E6
+ PkZ=1275.0309
.ends XGL6030-122_sat

*======================================================================
* SPICE Model generated by Coilcraft
* Coilcraft Part Number : XGL6030-152
* Inductance = 1.5uH
*======================================================================
* Model Parameters:
*   Valid Frequency Range = 0.1MHz-150MHz
*   Ambient Temperature = 25 degC
*   Inductor Frequency Model
*   Use model for Frequency Domain simulations
*======================================================================
.subckt XGL6030-152_freq port1 port2 PARAMS: Cpar=15.6pF Ind=1.5uH
X1 port1 port2 Model1A PARAMS:
+ R1=5
+ R2=0.0073
+ C= {Cpar}
+ K1=0.000001
+ K2=0.32
+ K3= {Ind}
+ K4=0.000001
+ K5=0.000001
+ L=1.5377E-06
+ Is=31.9136
+ a=0.7042
+ L_Z0=0
+ L_EL=0
+ L_F0=0E6
+ PkZ=1675.45587
.ends XGL6030-152_freq

*======================================================================
* SPICE Model generated by Coilcraft
* Coilcraft Part Number : XGL6030-152
* Inductance = 1.5uH
*======================================================================
* Model Parameters:
*   Valid Frequency Range = 0.1MHz-150MHz
*   Ambient Temperature = 25 degC
*   Inductor Saturation Model
*   Use model for Time Domain simulations
*======================================================================
.subckt XGL6030-152_sat port1 port2 PARAMS: Cpar=15.6pF Ind=1.5uH
X1 port1 port2 Model1C PARAMS:
+ R1=5
+ R2=0.0073
+ C= {Cpar}
+ K1=0.000001
+ K2=0.32
+ K3= {Ind}
+ K4=0.000001
+ K5=0.000001
+ L=1.5377E-06
+ Is=31.9136
+ a=0.7042
+ L_Z0=0
+ L_EL=0
+ L_F0=0E6
+ PkZ=1675.45587
.ends XGL6030-152_sat

*======================================================================
* SPICE Model generated by Coilcraft
* Coilcraft Part Number : XGL6030-182
* Inductance = 1.8uH
*======================================================================
* Model Parameters:
*   Valid Frequency Range = 0.1MHz-150MHz
*   Ambient Temperature = 25 degC
*   Inductor Frequency Model
*   Use model for Frequency Domain simulations
*======================================================================
.subckt XGL6030-182_freq port1 port2 PARAMS: Cpar=14.3pF Ind=1.8uH
X1 port1 port2 Model1A PARAMS:
+ R1=5
+ R2=0.0089
+ C= {Cpar}
+ K1=0.000001
+ K2=0.34
+ K3= {Ind}
+ K4=0.000001
+ K5=0.000001
+ L=1.8015E-06
+ Is=27.4279
+ a=0.7336
+ L_Z0=0
+ L_EL=0
+ L_F0=0E6
+ PkZ=1770.28233
.ends XGL6030-182_freq

*======================================================================
* SPICE Model generated by Coilcraft
* Coilcraft Part Number : XGL6030-182
* Inductance = 1.8uH
*======================================================================
* Model Parameters:
*   Valid Frequency Range = 0.1MHz-150MHz
*   Ambient Temperature = 25 degC
*   Inductor Saturation Model
*   Use model for Time Domain simulations
*======================================================================
.subckt XGL6030-182_sat port1 port2 PARAMS: Cpar=14.3pF Ind=1.8uH
X1 port1 port2 Model1C PARAMS:
+ R1=5
+ R2=0.0089
+ C= {Cpar}
+ K1=0.000001
+ K2=0.34
+ K3= {Ind}
+ K4=0.000001
+ K5=0.000001
+ L=1.8015E-06
+ Is=27.4279
+ a=0.7336
+ L_Z0=0
+ L_EL=0
+ L_F0=0E6
+ PkZ=1770.28233
.ends XGL6030-182_sat

*======================================================================
* SPICE Model generated by Coilcraft
* Coilcraft Part Number : XGL6030-222
* Inductance = 2.2uH
*======================================================================
* Model Parameters:
*   Valid Frequency Range = 0.1MHz-150MHz
*   Ambient Temperature = 25 degC
*   Inductor Frequency Model
*   Use model for Frequency Domain simulations
*======================================================================
.subckt XGL6030-222_freq port1 port2 PARAMS: Cpar=14pF Ind=2.2uH
X1 port1 port2 Model1A PARAMS:
+ R1=5
+ R2=0.0103
+ C= {Cpar}
+ K1=0.000001
+ K2=0.45
+ K3= {Ind}
+ K4=0.000001
+ K5=0.000001
+ L=2.1954E-06
+ Is=26.5108
+ a=0.7118
+ L_Z0=0
+ L_EL=0
+ L_F0=0E6
+ PkZ=2238.06933
.ends XGL6030-222_freq

*======================================================================
* SPICE Model generated by Coilcraft
* Coilcraft Part Number : XGL6030-222
* Inductance = 2.2uH
*======================================================================
* Model Parameters:
*   Valid Frequency Range = 0.1MHz-150MHz
*   Ambient Temperature = 25 degC
*   Inductor Saturation Model
*   Use model for Time Domain simulations
*======================================================================
.subckt XGL6030-222_sat port1 port2 PARAMS: Cpar=14pF Ind=2.2uH
X1 port1 port2 Model1C PARAMS:
+ R1=5
+ R2=0.0103
+ C= {Cpar}
+ K1=0.000001
+ K2=0.45
+ K3= {Ind}
+ K4=0.000001
+ K5=0.000001
+ L=2.1954E-06
+ Is=26.5108
+ a=0.7118
+ L_Z0=0
+ L_EL=0
+ L_F0=0E6
+ PkZ=2238.06933
.ends XGL6030-222_sat

*======================================================================
* SPICE Model generated by Coilcraft
* Coilcraft Part Number : XGL6030-332
* Inductance = 3.3uH
*======================================================================
* Model Parameters:
*   Valid Frequency Range = 0.1MHz-150MHz
*   Ambient Temperature = 25 degC
*   Inductor Frequency Model
*   Use model for Frequency Domain simulations
*======================================================================
.subckt XGL6030-332_freq port1 port2 PARAMS: Cpar=13.9pF Ind=3.3uH
X1 port1 port2 Model1A PARAMS:
+ R1=5
+ R2=0.0154
+ C= {Cpar}
+ K1=0.000001
+ K2=0.67
+ K3= {Ind}
+ K4=0.000001
+ K5=0.000001
+ L=3.0911E-06
+ Is=21.6385
+ a=0.7384
+ L_Z0=0
+ L_EL=0
+ L_F0=0E6
+ PkZ=3039.80577
.ends XGL6030-332_freq

*======================================================================
* SPICE Model generated by Coilcraft
* Coilcraft Part Number : XGL6030-332
* Inductance = 3.3uH
*======================================================================
* Model Parameters:
*   Valid Frequency Range = 0.1MHz-150MHz
*   Ambient Temperature = 25 degC
*   Inductor Saturation Model
*   Use model for Time Domain simulations
*======================================================================
.subckt XGL6030-332_sat port1 port2 PARAMS: Cpar=13.9pF Ind=3.3uH
X1 port1 port2 Model1C PARAMS:
+ R1=5
+ R2=0.0154
+ C= {Cpar}
+ K1=0.000001
+ K2=0.67
+ K3= {Ind}
+ K4=0.000001
+ K5=0.000001
+ L=3.0911E-06
+ Is=21.6385
+ a=0.7384
+ L_Z0=0
+ L_EL=0
+ L_F0=0E6
+ PkZ=3039.80577
.ends XGL6030-332_sat

*======================================================================
* SPICE Model generated by Coilcraft
* Coilcraft Part Number : XGL6030-472
* Inductance = 4.7uH
*======================================================================
* Model Parameters:
*   Valid Frequency Range = 0.1MHz-150MHz
*   Ambient Temperature = 25 degC
*   Inductor Frequency Model
*   Use model for Frequency Domain simulations
*======================================================================
.subckt XGL6030-472_freq port1 port2 PARAMS: Cpar=13.9pF Ind=4.7uH
X1 port1 port2 Model1A PARAMS:
+ R1=5
+ R2=0.021
+ C= {Cpar}
+ K1=0.000001
+ K2=1.05
+ K3= {Ind}
+ K4=0.000001
+ K5=0.000001
+ L=4.5383E-06
+ Is=18.1418
+ a=0.725
+ L_Z0=0
+ L_EL=0
+ L_F0=0E6
+ PkZ=4358.77183
.ends XGL6030-472_freq

*======================================================================
* SPICE Model generated by Coilcraft
* Coilcraft Part Number : XGL6030-472
* Inductance = 4.7uH
*======================================================================
* Model Parameters:
*   Valid Frequency Range = 0.1MHz-150MHz
*   Ambient Temperature = 25 degC
*   Inductor Saturation Model
*   Use model for Time Domain simulations
*======================================================================
.subckt XGL6030-472_sat port1 port2 PARAMS: Cpar=13.9pF Ind=4.7uH
X1 port1 port2 Model1C PARAMS:
+ R1=5
+ R2=0.021
+ C= {Cpar}
+ K1=0.000001
+ K2=1.05
+ K3= {Ind}
+ K4=0.000001
+ K5=0.000001
+ L=4.5383E-06
+ Is=18.1418
+ a=0.725
+ L_Z0=0
+ L_EL=0
+ L_F0=0E6
+ PkZ=4358.77183
.ends XGL6030-472_sat

*======================================================================
* SPICE Model generated by Coilcraft
* Coilcraft Part Number : XGL6030-562
* Inductance = 5.6uH
*======================================================================
* Model Parameters:
*   Valid Frequency Range = 0.1MHz-100MHz
*   Ambient Temperature = 25 degC
*   Inductor Frequency Model
*   Use model for Frequency Domain simulations
*======================================================================
.subckt XGL6030-562_freq port1 port2 PARAMS: Cpar=13.3pF Ind=5.6uH
X1 port1 port2 Model1A PARAMS:
+ R1=5
+ R2=0.0241
+ C= {Cpar}
+ K1=0.000001
+ K2=1.21
+ K3= {Ind}
+ K4=0.000001
+ K5=0.000001
+ L=5.273E-06
+ Is=18.0756
+ a=0.6971
+ L_Z0=0
+ L_EL=0
+ L_F0=0E6
+ PkZ=4893.99682
.ends XGL6030-562_freq

*======================================================================
* SPICE Model generated by Coilcraft
* Coilcraft Part Number : XGL6030-562
* Inductance = 5.6uH
*======================================================================
* Model Parameters:
*   Valid Frequency Range = 0.1MHz-100MHz
*   Ambient Temperature = 25 degC
*   Inductor Saturation Model
*   Use model for Time Domain simulations
*======================================================================
.subckt XGL6030-562_sat port1 port2 PARAMS: Cpar=13.3pF Ind=5.6uH
X1 port1 port2 Model1C PARAMS:
+ R1=5
+ R2=0.0241
+ C= {Cpar}
+ K1=0.000001
+ K2=1.21
+ K3= {Ind}
+ K4=0.000001
+ K5=0.000001
+ L=5.273E-06
+ Is=18.0756
+ a=0.6971
+ L_Z0=0
+ L_EL=0
+ L_F0=0E6
+ PkZ=4893.99682
.ends XGL6030-562_sat

*======================================================================
* SPICE Model generated by Coilcraft
* Coilcraft Part Number : XGL6030-682
* Inductance = 6.8uH
*======================================================================
* Model Parameters:
*   Valid Frequency Range = 0.1MHz-100MHz
*   Ambient Temperature = 25 degC
*   Inductor Frequency Model
*   Use model for Frequency Domain simulations
*======================================================================
.subckt XGL6030-682_freq port1 port2 PARAMS: Cpar=14.6pF Ind=6.8uH
X1 port1 port2 Model1A PARAMS:
+ R1=5
+ R2=0.0295
+ C= {Cpar}
+ K1=0.000001
+ K2=1.57
+ K3= {Ind}
+ K4=0.000001
+ K5=0.000001
+ L=6.4639E-06
+ Is=15.5757
+ a=0.7145
+ L_Z0=0
+ L_EL=0
+ L_F0=0E6
+ PkZ=5878.47522
.ends XGL6030-682_freq

*======================================================================
* SPICE Model generated by Coilcraft
* Coilcraft Part Number : XGL6030-682
* Inductance = 6.8uH
*======================================================================
* Model Parameters:
*   Valid Frequency Range = 0.1MHz-100MHz
*   Ambient Temperature = 25 degC
*   Inductor Saturation Model
*   Use model for Time Domain simulations
*======================================================================
.subckt XGL6030-682_sat port1 port2 PARAMS: Cpar=14.6pF Ind=6.8uH
X1 port1 port2 Model1C PARAMS:
+ R1=5
+ R2=0.0295
+ C= {Cpar}
+ K1=0.000001
+ K2=1.57
+ K3= {Ind}
+ K4=0.000001
+ K5=0.000001
+ L=6.4639E-06
+ Is=15.5757
+ a=0.7145
+ L_Z0=0
+ L_EL=0
+ L_F0=0E6
+ PkZ=5878.47522
.ends XGL6030-682_sat

*======================================================================
* SPICE Model generated by Coilcraft
* Coilcraft Part Number : XGL6030-822
* Inductance = 8.2uH
*======================================================================
* Model Parameters:
*   Valid Frequency Range = 0.1MHz-100MHz
*   Ambient Temperature = 25 degC
*   Inductor Frequency Model
*   Use model for Frequency Domain simulations
*======================================================================
.subckt XGL6030-822_freq port1 port2 PARAMS: Cpar=15.2pF Ind=8.2uH
X1 port1 port2 Model1A PARAMS:
+ R1=5
+ R2=0.04
+ C= {Cpar}
+ K1=0.000001
+ K2=2
+ K3= {Ind}
+ K4=0.000001
+ K5=0.000001
+ L=8.1093E-06
+ Is=13.9236
+ a=0.7109
+ L_Z0=0
+ L_EL=0
+ L_F0=0E6
+ PkZ=7057.14402
.ends XGL6030-822_freq

*======================================================================
* SPICE Model generated by Coilcraft
* Coilcraft Part Number : XGL6030-822
* Inductance = 8.2uH
*======================================================================
* Model Parameters:
*   Valid Frequency Range = 0.1MHz-100MHz
*   Ambient Temperature = 25 degC
*   Inductor Saturation Model
*   Use model for Time Domain simulations
*======================================================================
.subckt XGL6030-822_sat port1 port2 PARAMS: Cpar=15.2pF Ind=8.2uH
X1 port1 port2 Model1C PARAMS:
+ R1=5
+ R2=0.04
+ C= {Cpar}
+ K1=0.000001
+ K2=2
+ K3= {Ind}
+ K4=0.000001
+ K5=0.000001
+ L=8.1093E-06
+ Is=13.9236
+ a=0.7109
+ L_Z0=0
+ L_EL=0
+ L_F0=0E6
+ PkZ=7057.14402
.ends XGL6030-822_sat

*======================================================================
* SPICE Model generated by Coilcraft
* Coilcraft Part Number : XGL6030-103
* Inductance = 10uH
*======================================================================
* Model Parameters:
*   Valid Frequency Range = 0.1MHz-100MHz
*   Ambient Temperature = 25 degC
*   Inductor Frequency Model
*   Use model for Frequency Domain simulations
*======================================================================
.subckt XGL6030-103_freq port1 port2 PARAMS: Cpar=14pF Ind=10uH
X1 port1 port2 Model1A PARAMS:
+ R1=5
+ R2=0.044
+ C= {Cpar}
+ K1=0.000001
+ K2=2.04
+ K3= {Ind}
+ K4=0.000001
+ K5=0.000001
+ L=8.6548E-06
+ Is=10.3166
+ a=1.1241
+ L_Z0=0
+ L_EL=0
+ L_F0=0E6
+ PkZ=7109.28917
.ends XGL6030-103_freq

*======================================================================
* SPICE Model generated by Coilcraft
* Coilcraft Part Number : XGL6030-103
* Inductance = 10uH
*======================================================================
* Model Parameters:
*   Valid Frequency Range = 0.1MHz-100MHz
*   Ambient Temperature = 25 degC
*   Inductor Saturation Model
*   Use model for Time Domain simulations
*======================================================================
.subckt XGL6030-103_sat port1 port2 PARAMS: Cpar=14pF Ind=10uH
X1 port1 port2 Model1C PARAMS:
+ R1=5
+ R2=0.044
+ C= {Cpar}
+ K1=0.000001
+ K2=2.04
+ K3= {Ind}
+ K4=0.000001
+ K5=0.000001
+ L=8.6548E-06
+ Is=10.3166
+ a=1.1241
+ L_Z0=0
+ L_EL=0
+ L_F0=0E6
+ PkZ=7109.28917
.ends XGL6030-103_sat

*======================================================================
* SPICE Model generated by Coilcraft
* Coilcraft Part Number : XGL6030-123
* Inductance = 12uH
*======================================================================
* Model Parameters:
*   Valid Frequency Range = 0.1MHz-100MHz
*   Ambient Temperature = 25 degC
*   Inductor Frequency Model
*   Use model for Frequency Domain simulations
*======================================================================
.subckt XGL6030-123_freq port1 port2 PARAMS: Cpar=14.2pF Ind=12uH
X1 port1 port2 Model1A PARAMS:
+ R1=5
+ R2=0.053
+ C= {Cpar}
+ K1=0.000001
+ K2=2.87
+ K3= {Ind}
+ K4=0.000001
+ K5=0.000001
+ L=1.0936E-05
+ Is=11.9164
+ a=0.7022
+ L_Z0=0
+ L_EL=0
+ L_F0=0E6
+ PkZ=9460.07835
.ends XGL6030-123_freq

*======================================================================
* SPICE Model generated by Coilcraft
* Coilcraft Part Number : XGL6030-123
* Inductance = 12uH
*======================================================================
* Model Parameters:
*   Valid Frequency Range = 0.1MHz-100MHz
*   Ambient Temperature = 25 degC
*   Inductor Saturation Model
*   Use model for Time Domain simulations
*======================================================================
.subckt XGL6030-123_sat port1 port2 PARAMS: Cpar=14.2pF Ind=12uH
X1 port1 port2 Model1C PARAMS:
+ R1=5
+ R2=0.053
+ C= {Cpar}
+ K1=0.000001
+ K2=2.87
+ K3= {Ind}
+ K4=0.000001
+ K5=0.000001
+ L=1.0936E-05
+ Is=11.9164
+ a=0.7022
+ L_Z0=0
+ L_EL=0
+ L_F0=0E6
+ PkZ=9460.07835
.ends XGL6030-123_sat

*======================================================================
* SPICE Model generated by Coilcraft
* Coilcraft Part Number : XGL6030-153
* Inductance = 15uH
*======================================================================
* Model Parameters:
*   Valid Frequency Range = 0.1MHz-100MHz
*   Ambient Temperature = 25 degC
*   Inductor Frequency Model
*   Use model for Frequency Domain simulations
*======================================================================
.subckt XGL6030-153_freq port1 port2 PARAMS: Cpar=15.8pF Ind=15uH
X1 port1 port2 Model1A PARAMS:
+ R1=5
+ R2=0.072
+ C= {Cpar}
+ K1=0.000001
+ K2=4.06
+ K3= {Ind}
+ K4=0.000001
+ K5=0.000001
+ L=1.4693E-05
+ Is=9.3956
+ a=0.7504
+ L_Z0=0
+ L_EL=0
+ L_F0=0E6
+ PkZ=12213.9861