*======================================================================
* SPICE Model generated by Coilcraft
* Coilcraft Part Number : XGL6020-181
* Inductance = 180nH
*======================================================================
* Model Parameters:
*   Valid Frequency Range = 0.1MHz-300MHz
*   Ambient Temperature = 25 degC
*   Inductor Frequency Model
*   Use model for Frequency Domain simulations
*======================================================================
.subckt XGL6020-181_freq port1 port2 PARAMS: Cpar=5.8pF Ind=0.18uH
X1 port1 port2 Model1A PARAMS:
+ R1=7
+ R2=0.0018
+ C= {Cpar}
+ K1=0.00001
+ K2=0.027
+ K3= {Ind}
+ K4=0.000001
+ K5=0.000001
+ L=1.652E-07
+ Is=68.9508
+ a=0.7331
+ L_Z0=0
+ L_EL=0
+ L_F0=0E6
+ PkZ=312.815408
.ends XGL6020-181_freq

*======================================================================
* SPICE Model generated by Coilcraft
* Coilcraft Part Number : XGL6020-181
* Inductance = 180nH
*======================================================================
* Model Parameters:
*   Valid Frequency Range = 0.1MHz-300MHz
*   Ambient Temperature = 25 degC
*   Inductor Saturation Model
*   Use model for Time Domain simulations
*======================================================================
.subckt XGL6020-181_sat port1 port2 PARAMS: Cpar=5.8pF Ind=0.18uH
X1 port1 port2 Model1C PARAMS:
+ R1=7
+ R2=0.0018
+ C= {Cpar}
+ K1=0.00001
+ K2=0.027
+ K3= {Ind}
+ K4=0.000001
+ K5=0.000001
+ L=1.652E-07
+ Is=68.9508
+ a=0.7331
+ L_Z0=0
+ L_EL=0
+ L_F0=0E6
+ PkZ=312.815408
.ends XGL6020-181_sat

*======================================================================
* SPICE Model generated by Coilcraft
* Coilcraft Part Number : XGL6020-331
* Inductance = 330nH
*======================================================================
* Model Parameters:
*   Valid Frequency Range = 0.1MHz-250MHz
*   Ambient Temperature = 25 degC
*   Inductor Frequency Model
*   Use model for Frequency Domain simulations
*======================================================================
.subckt XGL6020-331_freq port1 port2 PARAMS: Cpar=10.6pF Ind=0.33uH
X1 port1 port2 Model1A PARAMS:
+ R1=5
+ R2=0.0026
+ C= {Cpar}
+ K1=0.00001
+ K2=0.056
+ K3= {Ind}
+ K4=0.000001
+ K5=0.000001
+ L=3.195E-07
+ Is=57.2964
+ a=0.6575
+ L_Z0=0
+ L_EL=0
+ L_F0=0E6
+ PkZ=476.368936
.ends XGL6020-331_freq

*======================================================================
* SPICE Model generated by Coilcraft
* Coilcraft Part Number : XGL6020-331
* Inductance = 330nH
*======================================================================
* Model Parameters:
*   Valid Frequency Range = 0.1MHz-250MHz
*   Ambient Temperature = 25 degC
*   Inductor Saturation Model
*   Use model for Time Domain simulations
*======================================================================
.subckt XGL6020-331_sat port1 port2 PARAMS: Cpar=10.6pF Ind=0.33uH
X1 port1 port2 Model1C PARAMS:
+ R1=5
+ R2=0.0026
+ C= {Cpar}
+ K1=0.00001
+ K2=0.056
+ K3= {Ind}
+ K4=0.000001
+ K5=0.000001
+ L=3.195E-07
+ Is=57.2964
+ a=0.6575
+ L_Z0=0
+ L_EL=0
+ L_F0=0E6
+ PkZ=476.368936
.ends XGL6020-331_sat

*======================================================================
* SPICE Model generated by Coilcraft
* Coilcraft Part Number : XGL6020-471
* Inductance = 470nH
*======================================================================
* Model Parameters:
*   Valid Frequency Range = 0.1MHz-200MHz
*   Ambient Temperature = 25 degC
*   Inductor Frequency Model
*   Use model for Frequency Domain simulations
*======================================================================
.subckt XGL6020-471_freq port1 port2 PARAMS: Cpar=8.9pF Ind=0.47uH
X1 port1 port2 Model1A PARAMS:
+ R1=4
+ R2=0.0042
+ C= {Cpar}
+ K1=0.00001
+ K2=0.063
+ K3= {Ind}
+ K4=0.000001
+ K5=0.000001
+ L=4.334E-07
+ Is=40.4488
+ a=0.7324
+ L_Z0=0
+ L_EL=0
+ L_F0=0E6
+ PkZ=532.83658
.ends XGL6020-471_freq

*======================================================================
* SPICE Model generated by Coilcraft
* Coilcraft Part Number : XGL6020-471
* Inductance = 470nH
*======================================================================
* Model Parameters:
*   Valid Frequency Range = 0.1MHz-200MHz
*   Ambient Temperature = 25 degC
*   Inductor Saturation Model
*   Use model for Time Domain simulations
*======================================================================
.subckt XGL6020-471_sat port1 port2 PARAMS: Cpar=8.9pF Ind=0.47uH
X1 port1 port2 Model1C PARAMS:
+ R1=4
+ R2=0.0042
+ C= {Cpar}
+ K1=0.00001
+ K2=0.063
+ K3= {Ind}
+ K4=0.000001
+ K5=0.000001
+ L=4.334E-07
+ Is=40.4488
+ a=0.7324
+ L_Z0=0
+ L_EL=0
+ L_F0=0E6
+ PkZ=532.83658
.ends XGL6020-471_sat

*======================================================================
* SPICE Model generated by Coilcraft
* Coilcraft Part Number : XGL6020-681
* Inductance = 680nH
*======================================================================
* Model Parameters:
*   Valid Frequency Range = 0.1MHz-200MHz
*   Ambient Temperature = 25 degC
*   Inductor Frequency Model
*   Use model for Frequency Domain simulations
*======================================================================
.subckt XGL6020-681_freq port1 port2 PARAMS: Cpar=10.8pF Ind=0.68uH
X1 port1 port2 Model1A PARAMS:
+ R1=6
+ R2=0.0055
+ C= {Cpar}
+ K1=0.00001
+ K2=0.115
+ K3= {Ind}
+ K4=0.000001
+ K5=0.000001
+ L=6.624E-07
+ Is=38.6844
+ a=0.6673
+ L_Z0=0
+ L_EL=0
+ L_F0=0E6
+ PkZ=812.259057
.ends XGL6020-681_freq

*======================================================================
* SPICE Model generated by Coilcraft
* Coilcraft Part Number : XGL6020-681
* Inductance = 680nH
*======================================================================
* Model Parameters:
*   Valid Frequency Range = 0.1MHz-200MHz
*   Ambient Temperature = 25 degC
*   Inductor Saturation Model
*   Use model for Time Domain simulations
*======================================================================
.subckt XGL6020-681_sat port1 port2 PARAMS: Cpar=10.8pF Ind=0.68uH
X1 port1 port2 Model1C PARAMS:
+ R1=6
+ R2=0.0055
+ C= {Cpar}
+ K1=0.00001
+ K2=0.115
+ K3= {Ind}
+ K4=0.000001
+ K5=0.000001
+ L=6.624E-07
+ Is=38.6844
+ a=0.6673
+ L_Z0=0
+ L_EL=0
+ L_F0=0E6
+ PkZ=812.259057
.ends XGL6020-681_sat

*======================================================================
* SPICE Model generated by Coilcraft
* Coilcraft Part Number : XGL6020-102
* Inductance = 1uH
*======================================================================
* Model Parameters:
*   Valid Frequency Range = 0.1MHz-150MHz
*   Ambient Temperature = 25 degC
*   Inductor Frequency Model
*   Use model for Frequency Domain simulations
*======================================================================
.subckt XGL6020-102_freq port1 port2 PARAMS: Cpar=12pF Ind=1uH
X1 port1 port2 Model1A PARAMS:
+ R1=6
+ R2=0.008
+ C= {Cpar}
+ K1=0.00001
+ K2=0.2
+ K3= {Ind}
+ K4=0.000001
+ K5=0.000001
+ L=1.0084E-06
+ Is=31.221
+ a=0.6656
+ L_Z0=0
+ L_EL=0
+ L_F0=0E6
+ PkZ=1233.90324
.ends XGL6020-102_freq

*======================================================================
* SPICE Model generated by Coilcraft
* Coilcraft Part Number : XGL6020-102
* Inductance = 1uH
*======================================================================
* Model Parameters:
*   Valid Frequency Range = 0.1MHz-150MHz
*   Ambient Temperature = 25 degC
*   Inductor Saturation Model
*   Use model for Time Domain simulations
*======================================================================
.subckt XGL6020-102_sat port1 port2 PARAMS: Cpar=12pF Ind=1uH
X1 port1 port2 Model1C PARAMS:
+ R1=6
+ R2=0.008
+ C= {Cpar}
+ K1=0.00001
+ K2=0.2
+ K3= {Ind}
+ K4=0.000001
+ K5=0.000001
+ L=1.0084E-06
+ Is=31.221
+ a=0.6656
+ L_Z0=0
+ L_EL=0
+ L_F0=0E6
+ PkZ=1233.90324
.ends XGL6020-102_sat

*======================================================================
* SPICE Model generated by Coilcraft
* Coilcraft Part Number : XGL6020-152
* Inductance = 1.5uH
*======================================================================
* Model Parameters:
*   Valid Frequency Range = 0.1MHz-150MHz
*   Ambient Temperature = 25 degC
*   Inductor Frequency Model
*   Use model for Frequency Domain simulations
*======================================================================
.subckt XGL6020-152_freq port1 port2 PARAMS: Cpar=11pF Ind=1.5uH
X1 port1 port2 Model1A PARAMS:
+ R1=5
+ R2=0.011
+ C= {Cpar}
+ K1=0.00001
+ K2=0.25
+ K3= {Ind}
+ K4=0.000001
+ K5=0.000001
+ L=1.4305E-06
+ Is=25.6051
+ a=0.6834
+ L_Z0=0
+ L_EL=0
+ L_F0=0E6
+ PkZ=1478.97635
.ends XGL6020-152_freq

*======================================================================
* SPICE Model generated by Coilcraft
* Coilcraft Part Number : XGL6020-152
* Inductance = 1.5uH
*======================================================================
* Model Parameters:
*   Valid Frequency Range = 0.1MHz-150MHz
*   Ambient Temperature = 25 degC
*   Inductor Saturation Model
*   Use model for Time Domain simulations
*======================================================================
.subckt XGL6020-152_sat port1 port2 PARAMS: Cpar=11pF Ind=1.5uH
X1 port1 port2 Model1C PARAMS:
+ R1=5
+ R2=0.011
+ C= {Cpar}
+ K1=0.00001
+ K2=0.25
+ K3= {Ind}
+ K4=0.000001
+ K5=0.000001
+ L=1.4305E-06
+ Is=25.6051
+ a=0.6834
+ L_Z0=0
+ L_EL=0
+ L_F0=0E6
+ PkZ=1478.97635
.ends XGL6020-152_sat

*======================================================================
* SPICE Model generated by Coilcraft
* Coilcraft Part Number : XGL6020-222
* Inductance = 2.2uH
*======================================================================
* Model Parameters:
*   Valid Frequency Range = 0.1MHz-150MHz
*   Ambient Temperature = 25 degC
*   Inductor Frequency Model
*   Use model for Frequency Domain simulations
*======================================================================
.subckt XGL6020-222_freq port1 port2 PARAMS: Cpar=15pF Ind=2.2uH
X1 port1 port2 Model1A PARAMS:
+ R1=5
+ R2=0.0161
+ C= {Cpar}
+ K1=0.00001
+ K2=0.4
+ K3= {Ind}
+ K4=0.000001
+ K5=0.000001
+ L=2.2799E-06
+ Is=19.7357
+ a=0.6905
+ L_Z0=0
+ L_EL=0
+ L_F0=0E6
+ PkZ=1963.08847
.ends XGL6020-222_freq

*======================================================================
* SPICE Model generated by Coilcraft
* Coilcraft Part Number : XGL6020-222
* Inductance = 2.2uH
*======================================================================
* Model Parameters:
*   Valid Frequency Range = 0.1MHz-150MHz
*   Ambient Temperature = 25 degC
*   Inductor Saturation Model
*   Use model for Time Domain simulations
*======================================================================
.subckt XGL6020-222_sat port1 port2 PARAMS: Cpar=15pF Ind=2.2uH
X1 port1 port2 Model1C PARAMS:
+ R1=5
+ R2=0.0161
+ C= {Cpar}
+ K1=0.00001
+ K2=0.4
+ K3= {Ind}
+ K4=0.000001
+ K5=0.000001
+ L=2.2799E-06
+ Is=19.7357
+ a=0.6905
+ L_Z0=0
+ L_EL=0
+ L_F0=0E6
+ PkZ=1963.08847
.ends XGL6020-222_sat

*======================================================================
* SPICE Model generated by Coilcraft
* Coilcraft Part Number : XGL6020-332
* Inductance = 3.3uH
*======================================================================
* Model Parameters:
*   Valid Frequency Range = 0.1MHz-100MHz
*   Ambient Temperature = 25 degC
*   Inductor Frequency Model
*   Use model for Frequency Domain simulations
*======================================================================
.subckt XGL6020-332_freq port1 port2 PARAMS: Cpar=12.8pF Ind=3.3uH
X1 port1 port2 Model1A PARAMS:
+ R1=5
+ R2=0.0243
+ C= {Cpar}
+ K1=0.0001
+ K2=0.66
+ K3= {Ind}
+ K4=0.000001
+ K5=0.000001
+ L=3.2309E-06
+ Is=17.5201
+ a=0.6698
+ L_Z0=0
+ L_EL=0
+ L_F0=0E6
+ PkZ=3053.53762
.ends XGL6020-332_freq

*======================================================================
* SPICE Model generated by Coilcraft
* Coilcraft Part Number : XGL6020-332
* Inductance = 3.3uH
*======================================================================
* Model Parameters:
*   Valid Frequency Range = 0.1MHz-100MHz
*   Ambient Temperature = 25 degC
*   Inductor Saturation Model
*   Use model for Time Domain simulations
*======================================================================
.subckt XGL6020-332_sat port1 port2 PARAMS: Cpar=12.8pF Ind=3.3uH
X1 port1 port2 Model1C PARAMS:
+ R1=5
+ R2=0.0243
+ C= {Cpar}
+ K1=0.0001
+ K2=0.66
+ K3= {Ind}
+ K4=0.000001
+ K5=0.000001
+ L=3.2309E-06
+ Is=17.5201
+ a=0.6698
+ L_Z0=0
+ L_EL=0
+ L_F0=0E6
+ PkZ=3053.53762
.ends XGL6020-332_sat

*======================================================================
* SPICE Model generated by Coilcraft
* Coilcraft Part Number : XGL6020-472
* Inductance = 4.7uH
*======================================================================
* Model Parameters:
*   Valid Frequency Range = 0.1MHz-100MHz
*   Ambient Temperature = 25 degC
*   Inductor Frequency Model
*   Use model for Frequency Domain simulations
*======================================================================
.subckt XGL6020-472_freq port1 port2 PARAMS: Cpar=14.2pF Ind=4.7uH
X1 port1 port2 Model1A PARAMS:
+ R1=5
+ R2=0.0338
+ C= {Cpar}
+ K1=0.00001
+ K2=0.88
+ K3= {Ind}
+ K4=0.000001
+ K5=0.000001
+ L=4.8391E-06
+ Is=16.6034
+ a=0.584
+ L_Z0=0
+ L_EL=0
+ L_F0=0E6
+ PkZ=3667.1335
.ends XGL6020-472_freq

*======================================================================
* SPICE Model generated by Coilcraft
* Coilcraft Part Number : XGL6020-472
* Inductance = 4.7uH
*======================================================================
* Model Parameters:
*   Valid Frequency Range = 0.1MHz-100MHz
*   Ambient Temperature = 25 degC
*   Inductor Saturation Model
*   Use model for Time Domain simulations
*======================================================================
.subckt XGL6020-472_sat port1 port2 PARAMS: Cpar=14.2pF Ind=4.7uH
X1 port1 port2 Model1C PARAMS:
+ R1=5
+ R2=0.0338
+ C= {Cpar}
+ K1=0.00001
+ K2=0.88
+ K3= {Ind}
+ K4=0.000001
+ K5=0.000001
+ L=4.8391E-06
+ Is=16.6034
+ a=0.584
+ L_Z0=0
+ L_EL=0
+ L_F0=0E6
+ PkZ=3667.1335
.ends XGL6020-472_sat

*======================================================================
* SPICE Model generated by Coilcraft
* Coilcraft Part Number : XGL6020-562
* Inductance = 5.6uH
*======================================================================
* Model Parameters:
*   Valid Frequency Range = 0.1MHz-100MHz
*   Ambient Temperature = 25 degC
*   Inductor Frequency Model
*   Use model for Frequency Domain simulations
*======================================================================
.subckt XGL6020-562_freq port1 port2 PARAMS: Cpar=13.6pF Ind=5.6uH
X1 port1 port2 Model1A PARAMS:
+ R1=4
+ R2=0.0404
+ C= {Cpar}
+ K1=0.0001
+ K2=0.97
+ K3= {Ind}
+ K4=0.000001
+ K5=0.000001
+ L=5.3643E-06
+ Is=14.727
+ a=0.6099
+ L_Z0=0
+ L_EL=0
+ L_F0=0E6
+ PkZ=3965.80709
.ends XGL6020-562_freq

*======================================================================
* SPICE Model generated by Coilcraft
* Coilcraft Part Number : XGL6020-562
* Inductance = 5.6uH
*======================================================================
* Model Parameters:
*   Valid Frequency Range = 0.1MHz-100MHz
*   Ambient Temperature = 25 degC
*   Inductor Saturation Model
*   Use model for Time Domain simulations
*======================================================================
.subckt XGL6020-562_sat port1 port2 PARAMS: Cpar=13.6pF Ind=5.6uH
X1 port1 port2 Model1C PARAMS:
+ R1=4
+ R2=0.0404
+ C= {Cpar}
+ K1=0.0001
+ K2=0.97
+ K3= {Ind}
+ K4=0.000001
+ K5=0.000001
+ L=5.3643E-06
+ Is=14.727
+ a=0.6099
+ L_Z0=0
+ L_EL=0
+ L_F0=0E6
+ PkZ=3965.80709
.ends XGL6020-562_sat

*======================================================================
* SPICE Model generated by Coilcraft
* Coilcraft Part Number : XGL6020-682
* Inductance = 6.8uH
*======================================================================
* Model Parameters:
*   Valid Frequency Range = 0.1MHz-100MHz
*   Ambient Temperature = 25 degC
*   Inductor Frequency Model
*   Use model for Frequency Domain simulations
*======================================================================
.subckt XGL6020-682_freq port1 port2 PARAMS: Cpar=15pF Ind=6.8uH
X1 port1 port2 Model1A PARAMS:
+ R1=4
+ R2=0.0564
+ C= {Cpar}
+ K1=0.0004
+ K2=1.44
+ K3= {Ind}
+ K4=0.000001
+ K5=0.000001
+ L=6.6009E-06
+ Is=11.0687
+ a=0.697
+ L_Z0=0
+ L_EL=0
+ L_F0=0E6
+ PkZ=5340.19095
.ends XGL6020-682_freq

*======================================================================
* SPICE Model generated by Coilcraft
* Coilcraft Part Number : XGL6020-682
* Inductance = 6.8uH
*======================================================================
* Model Parameters:
*   Valid Frequency Range = 0.1MHz-100MHz
*   Ambient Temperature = 25 degC
*   Inductor Saturation Model
*   Use model for Time Domain simulations
*======================================================================
.subckt XGL6020-682_sat port1 port2 PARAMS: Cpar=15pF Ind=6.8uH
X1 port1 port2 Model1C PARAMS:
+ R1=4
+ R2=0.0564
+ C= {Cpar}
+ K1=0.0004
+ K2=1.44
+ K3= {Ind}
+ K4=0.000001
+ K5=0.000001
+ L=6.6009E-06
+ Is=11.0687
+ a=0.697
+ L_Z0=0
+ L_EL=0
+ L_F0=0E6
+ PkZ=5340.19095
.ends XGL6020-682_sat

*======================================================================
* SPICE Model generated by Coilcraft
* Coilcraft Part Number : XGL6020-822
* Inductance = 8.2uH
*======================================================================
* Model Parameters:
*   Valid Frequency Range = 0.1MHz-100MHz
*   Ambient Temperature = 25 degC
*   Inductor Frequency Model
*   Use model for Frequency Domain simulations
*======================================================================
.subckt XGL6020-822_freq port1 port2 PARAMS: Cpar=15pF Ind=8.2uH
X1 port1 port2 Model1A PARAMS:
+ R1=5
+ R2=0.0498
+ C= {Cpar}
+ K1=0.0004
+ K2=1.6
+ K3= {Ind}
+ K4=0.000001
+ K5=0.000001
+ L=7.6728E-06
+ Is=10.9019
+ a=0.6734
+ L_Z0=0
+ L_EL=0
+ L_F0=0E6
+ PkZ=5652.85105
.ends XGL6020-822_freq

*======================================================================
* SPICE Model generated by Coilcraft
* Coilcraft Part Number : XGL6020-822
* Inductance = 8.2uH
*======================================================================
* Model Parameters:
*   Valid Frequency Range = 0.1MHz-100MHz
*   Ambient Temperature = 25 degC
*   Inductor Saturation Model
*   Use model for Time Domain simulations
*======================================================================
.subckt XGL6020-822_sat port1 port2 PARAMS: Cpar=15pF Ind=8.2uH
X1 port1 port2 Model1C PARAMS:
+ R1=5
+ R2=0.0498
+ C= {Cpar}
+ K1=0.0004
+ K2=1.6
+ K3= {Ind}
+ K4=0.000001
+ K5=0.000001
+ L=7.6728E-06
+ Is=10.9019
+ a=0.6734
+ L_Z0=0
+ L_EL=0
+ L_F0=0E6
+ PkZ=5652.85105
.ends XGL6020-822_sat

*======================================================================
* SPICE Model generated by Coilcraft
* Coilcraft Part Number : XGL6020-103
* Inductance = 10uH
*======================================================================
* Model Parameters:
*   Valid Frequency Range = 0.1MHz-100MHz
*   Ambient Temperature = 25 degC
*   Inductor Frequency Model
*   Use model for Frequency Domain simulations
*======================================================================
.subckt XGL6020-103_freq port1 port2 PARAMS: Cpar=12pF Ind=10uH
X1 port1 port2 Model1A PARAMS:
+ R1=5
+ R2=0.0775
+ C= {Cpar}
+ K1=0.0008
+ K2=1.8
+ K3= {Ind}
+ K4=0.000001
+ K5=0.000001
+ L=9.2657E-06
+ Is=8.3532
+ a=0.8074
+ L_Z0=0
+ L_EL=0
+ L_F0=0E6
+ PkZ=6434.65438
.ends XGL6020-103_freq

*======================================================================
* SPICE Model generated by Coilcraft
* Coilcraft Part Number : XGL6020-103
* Inductance = 10uH
*======================================================================
* Model Parameters:
*   Valid Frequency Range = 0.1MHz-100MHz
*   Ambient Temperature = 25 degC
*   Inductor Saturation Model
*   Use model for Time Domain simulations
*======================================================================
.subckt XGL6020-103_sat port1 port2 PARAMS: Cpar=12pF Ind=10uH
X1 port1 port2 Model1C PARAMS:
+ R1=5
+ R2=0.0775
+ C= {Cpar}
+ K1=0.0008
+ K2=1.8
+ K3= {Ind}
+ K4=0.000001
+ K5=0.000001
+ L=9.2657E-06
+ Is=8.3532
+ a=0.8074
+ L_Z0=0
+ L_EL=0
+ L_F0=0E6
+ PkZ=6434.65438
.ends XGL6020-103_sat

*======================================================================
* SPICE Model generated by Coilcraft
* Coilcraft Saturation Inductor Model
*======================================================================
* Model Parameters:
*   Valid Frequency Range Varies by Inductor
*   Ambient Temperature = 25 degC
*   Current Saturable Inductor Model
*======================================================================
.subckt Model1C Lin Lout PARAMS:
+ R1=1
+ R2=1
+ C=1
+ L=1
+ Is=1
+ a=1
+ PkZ=94.2 * {L} *1e6
R2 Lin N001 {R2}
R3 N001 Lout {PkZ}
C1 N001 N002 {C}
R1 N002 Lout {R1}
L1 N001 Lout flux={L*Is}*pwrs(tanh(pwrs((x/{Is}),{a})),{1/a})
.ends Model1C





*======================================================================
* SPICE Model generated by Coilcraft
* Coilcraft Power Inductor Model
*======================================================================
* Model Parameters:
*   Valid Frequency Range Varies by Inductor
*   Ambient Temperature = 25 degC
*   DC Bias Current = 0 A
*   Frequency Dependent Inductor Model
*======================================================================
.subckt Model1A Lin Lout PARAMS:
+ R1=1
+ R2=1
+ C=1
+ K1=1
+ K2=1
+ K3=1
+ K4=1
+ K5=1
R2 N001 Lin {R2}
R1 Lout N002 {R1}
C1 N002 N001 {C}
G_Rvar2 N001 Lout LAPLACE { V(N001, Lout) } {1/K2/(-S*S/4/PI^2)^0.25}
G_Rvar1 N001 N003 LAPLACE { V(N001, N003) } {1/K1/(-S*S/4/PI^2)^0.25}
G_Lvar N003 Lout  LAPLACE { V(N003, Lout) } {1/(S*1e-6*({K3*1e6}-({K4}*LOG({K5}*(sqrt(-S*S)/(2*pi))))))}
*This large resistance to ground has been added to prevent a floating node error
R3 N003 0 100Meg
.ends Model1A


.subckt Coilcraft_Inductor Lin Lout
R1 Lout Lin 100Meg
.ends Coilcraft_Inductor
