*======================================================================
* SPICE Model generated by Coilcraft
* Coilcraft Part Number : XGL6060-221
* Inductance = 220nH
*======================================================================
* Model Parameters:
*   Valid Frequency Range = 0.1MHz-250MHz
*   Ambient Temperature = 25 degC
*   Inductor Frequency Model
*   Use model for Frequency Domain simulations
*======================================================================
.subckt XGL6060-221_freq port1 port2 PARAMS: Cpar=6.1pF Ind=0.22uH
X1 port1 port2 Model1A PARAMS:
+ R1=6
+ R2=0.0013
+ C= {Cpar}
+ K1=0.000001
+ K2=0.032
+ K3= {Ind}
+ K4=0.000001
+ K5=0.000001
+ L=2.219E-07
+ Is=70.5837
+ a=0.83
+ L_Z0=0
+ L_EL=0
+ L_F0=0E6
+ PkZ=353.030541
.ends XGL6060-221_freq

*======================================================================
* SPICE Model generated by Coilcraft
* Coilcraft Part Number : XGL6060-221
* Inductance = 220nH
*======================================================================
* Model Parameters:
*   Valid Frequency Range = 0.1MHz-250MHz
*   Ambient Temperature = 25 degC
*   Inductor Saturation Model
*   Use model for Time Domain simulations
*======================================================================
.subckt XGL6060-221_sat port1 port2 PARAMS: Cpar=6.1pF Ind=0.22uH
X1 port1 port2 Model1C PARAMS:
+ R1=6
+ R2=0.0013
+ C= {Cpar}
+ K1=0.000001
+ K2=0.032
+ K3= {Ind}
+ K4=0.000001
+ K5=0.000001
+ L=2.219E-07
+ Is=70.5837
+ a=0.83
+ L_Z0=0
+ L_EL=0
+ L_F0=0E6
+ PkZ=353.030541
.ends XGL6060-221_sat

*======================================================================
* SPICE Model generated by Coilcraft
* Coilcraft Part Number : XGL6060-471
* Inductance = 470nH
*======================================================================
* Model Parameters:
*   Valid Frequency Range = 0.1MHz-200MHz
*   Ambient Temperature = 25 degC
*   Inductor Frequency Model
*   Use model for Frequency Domain simulations
*======================================================================
.subckt XGL6060-471_freq port1 port2 PARAMS: Cpar=8.2pF Ind=0.47uH
X1 port1 port2 Model1A PARAMS:
+ R1=4
+ R2=0.0018
+ C= {Cpar}
+ K1=0.000001
+ K2=0.067
+ K3= {Ind}
+ K4=0.000001
+ K5=0.000001
+ L=4.412E-07
+ Is=53.8532
+ a=0.8414
+ L_Z0=0
+ L_EL=0
+ L_F0=0E6
+ PkZ=578.848586
.ends XGL6060-471_freq

*======================================================================
* SPICE Model generated by Coilcraft
* Coilcraft Part Number : XGL6060-471
* Inductance = 470nH
*======================================================================
* Model Parameters:
*   Valid Frequency Range = 0.1MHz-200MHz
*   Ambient Temperature = 25 degC
*   Inductor Saturation Model
*   Use model for Time Domain simulations
*======================================================================
.subckt XGL6060-471_sat port1 port2 PARAMS: Cpar=8.2pF Ind=0.47uH
X1 port1 port2 Model1C PARAMS:
+ R1=4
+ R2=0.0018
+ C= {Cpar}
+ K1=0.000001
+ K2=0.067
+ K3= {Ind}
+ K4=0.000001
+ K5=0.000001
+ L=4.412E-07
+ Is=53.8532
+ a=0.8414
+ L_Z0=0
+ L_EL=0
+ L_F0=0E6
+ PkZ=578.848586
.ends XGL6060-471_sat

*======================================================================
* SPICE Model generated by Coilcraft
* Coilcraft Part Number : XGL6060-681
* Inductance = 680nH
*======================================================================
* Model Parameters:
*   Valid Frequency Range = 0.1MHz-150MHz
*   Ambient Temperature = 25 degC
*   Inductor Frequency Model
*   Use model for Frequency Domain simulations
*======================================================================
.subckt XGL6060-681_freq port1 port2 PARAMS: Cpar=9.8pF Ind=0.68uH
X1 port1 port2 Model1A PARAMS:
+ R1=4
+ R2=0.0023
+ C= {Cpar}
+ K1=0.000001
+ K2=0.114
+ K3= {Ind}
+ K4=0.000001
+ K5=0.000001
+ L=6.651E-07
+ Is=47.0099
+ a=0.8683
+ L_Z0=0
+ L_EL=0
+ L_F0=0E6
+ PkZ=851.12785
.ends XGL6060-681_freq

*======================================================================
* SPICE Model generated by Coilcraft
* Coilcraft Part Number : XGL6060-681
* Inductance = 680nH
*======================================================================
* Model Parameters:
*   Valid Frequency Range = 0.1MHz-150MHz
*   Ambient Temperature = 25 degC
*   Inductor Saturation Model
*   Use model for Time Domain simulations
*======================================================================
.subckt XGL6060-681_sat port1 port2 PARAMS: Cpar=9.8pF Ind=0.68uH
X1 port1 port2 Model1C PARAMS:
+ R1=4
+ R2=0.0023
+ C= {Cpar}
+ K1=0.000001
+ K2=0.114
+ K3= {Ind}
+ K4=0.000001
+ K5=0.000001
+ L=6.651E-07
+ Is=47.0099
+ a=0.8683
+ L_Z0=0
+ L_EL=0
+ L_F0=0E6
+ PkZ=851.12785
.ends XGL6060-681_sat

*======================================================================
* SPICE Model generated by Coilcraft
* Coilcraft Part Number : XGL6060-102
* Inductance = 1uH
*======================================================================
* Model Parameters:
*   Valid Frequency Range = 0.1MHz-150MHz
*   Ambient Temperature = 25 degC
*   Inductor Frequency Model
*   Use model for Frequency Domain simulations
*======================================================================
.subckt XGL6060-102_freq port1 port2 PARAMS: Cpar=11pF Ind=1uH
X1 port1 port2 Model1A PARAMS:
+ R1=5
+ R2=0.0029
+ C= {Cpar}
+ K1=0.000001
+ K2=0.164
+ K3= {Ind}
+ K4=0.000001
+ K5=0.000001
+ L=9.52E-07
+ Is=41.564
+ a=0.8611
+ L_Z0=0
+ L_EL=0
+ L_F0=0E6
+ PkZ=1069.19341
.ends XGL6060-102_freq

*======================================================================
* SPICE Model generated by Coilcraft
* Coilcraft Part Number : XGL6060-102
* Inductance = 1uH
*======================================================================
* Model Parameters:
*   Valid Frequency Range = 0.1MHz-150MHz
*   Ambient Temperature = 25 degC
*   Inductor Saturation Model
*   Use model for Time Domain simulations
*======================================================================
.subckt XGL6060-102_sat port1 port2 PARAMS: Cpar=11pF Ind=1uH
X1 port1 port2 Model1C PARAMS:
+ R1=5
+ R2=0.0029
+ C= {Cpar}
+ K1=0.000001
+ K2=0.164
+ K3= {Ind}
+ K4=0.000001
+ K5=0.000001
+ L=9.52E-07
+ Is=41.564
+ a=0.8611
+ L_Z0=0
+ L_EL=0
+ L_F0=0E6
+ PkZ=1069.19341
.ends XGL6060-102_sat

*======================================================================
* SPICE Model generated by Coilcraft
* Coilcraft Part Number : XGL6060-122
* Inductance = 1.2uH
*======================================================================
* Model Parameters:
*   Valid Frequency Range = 0.1MHz-150MHz
*   Ambient Temperature = 25 degC
*   Inductor Frequency Model
*   Use model for Frequency Domain simulations
*======================================================================
.subckt XGL6060-122_freq port1 port2 PARAMS: Cpar=11.4pF Ind=1.2uH
X1 port1 port2 Model1A PARAMS:
+ R1=5
+ R2=0.0034
+ C= {Cpar}
+ K1=0.000001
+ K2=0.204
+ K3= {Ind}
+ K4=0.000001
+ K5=0.000001
+ L=1.2219E-06
+ Is=36.4437
+ a=0.8629
+ L_Z0=0
+ L_EL=0
+ L_F0=0E6
+ PkZ=1258.13821
.ends XGL6060-122_freq

*======================================================================
* SPICE Model generated by Coilcraft
* Coilcraft Part Number : XGL6060-122
* Inductance = 1.2uH
*======================================================================
* Model Parameters:
*   Valid Frequency Range = 0.1MHz-150MHz
*   Ambient Temperature = 25 degC
*   Inductor Saturation Model
*   Use model for Time Domain simulations
*======================================================================
.subckt XGL6060-122_sat port1 port2 PARAMS: Cpar=11.4pF Ind=1.2uH
X1 port1 port2 Model1C PARAMS:
+ R1=5
+ R2=0.0034
+ C= {Cpar}
+ K1=0.000001
+ K2=0.204
+ K3= {Ind}
+ K4=0.000001
+ K5=0.000001
+ L=1.2219E-06
+ Is=36.4437
+ a=0.8629
+ L_Z0=0
+ L_EL=0
+ L_F0=0E6
+ PkZ=1258.13821
.ends XGL6060-122_sat

*======================================================================
* SPICE Model generated by Coilcraft
* Coilcraft Part Number : XGL6060-152
* Inductance = 1.5uH
*======================================================================
* Model Parameters:
*   Valid Frequency Range = 0.1MHz-150MHz
*   Ambient Temperature = 25 degC
*   Inductor Frequency Model
*   Use model for Frequency Domain simulations
*======================================================================
.subckt XGL6060-152_freq port1 port2 PARAMS: Cpar=11.6pF Ind=1.5uH
X1 port1 port2 Model1A PARAMS:
+ R1=3
+ R2=0.0038
+ C= {Cpar}
+ K1=0.000001
+ K2=0.246
+ K3= {Ind}
+ K4=0.000001
+ K5=0.000001
+ L=1.3621E-06
+ Is=32.9473
+ a=0.8693
+ L_Z0=0
+ L_EL=0
+ L_F0=0E6
+ PkZ=1467.68642
.ends XGL6060-152_freq

*======================================================================
* SPICE Model generated by Coilcraft
* Coilcraft Part Number : XGL6060-152
* Inductance = 1.5uH
*======================================================================
* Model Parameters:
*   Valid Frequency Range = 0.1MHz-150MHz
*   Ambient Temperature = 25 degC
*   Inductor Saturation Model
*   Use model for Time Domain simulations
*======================================================================
.subckt XGL6060-152_sat port1 port2 PARAMS: Cpar=11.6pF Ind=1.5uH
X1 port1 port2 Model1C PARAMS:
+ R1=3
+ R2=0.0038
+ C= {Cpar}
+ K1=0.000001
+ K2=0.246
+ K3= {Ind}
+ K4=0.000001
+ K5=0.000001
+ L=1.3621E-06
+ Is=32.9473
+ a=0.8693
+ L_Z0=0
+ L_EL=0
+ L_F0=0E6
+ PkZ=1467.68642
.ends XGL6060-152_sat

*======================================================================
* SPICE Model generated by Coilcraft
* Coilcraft Part Number : XGL6060-182
* Inductance = 1.8uH
*======================================================================
* Model Parameters:
*   Valid Frequency Range = 0.1MHz-150MHz
*   Ambient Temperature = 25 degC
*   Inductor Frequency Model
*   Use model for Frequency Domain simulations
*======================================================================
.subckt XGL6060-182_freq port1 port2 PARAMS: Cpar=11.6pF Ind=1.8uH
X1 port1 port2 Model1A PARAMS:
+ R1=4
+ R2=0.0043
+ C= {Cpar}
+ K1=0.000001
+ K2=0.31
+ K3= {Ind}
+ K4=0.000001
+ K5=0.000001
+ L=1.7222E-06
+ Is=30.3238
+ a=0.8744
+ L_Z0=0
+ L_EL=0
+ L_F0=0E6
+ PkZ=1747.02835
.ends XGL6060-182_freq

*======================================================================
* SPICE Model generated by Coilcraft
* Coilcraft Part Number : XGL6060-182
* Inductance = 1.8uH
*======================================================================
* Model Parameters:
*   Valid Frequency Range = 0.1MHz-150MHz
*   Ambient Temperature = 25 degC
*   Inductor Saturation Model
*   Use model for Time Domain simulations
*======================================================================
.subckt XGL6060-182_sat port1 port2 PARAMS: Cpar=11.6pF Ind=1.8uH
X1 port1 port2 Model1C PARAMS:
+ R1=4
+ R2=0.0043
+ C= {Cpar}
+ K1=0.000001
+ K2=0.31
+ K3= {Ind}
+ K4=0.000001
+ K5=0.000001
+ L=1.7222E-06
+ Is=30.3238
+ a=0.8744
+ L_Z0=0
+ L_EL=0
+ L_F0=0E6
+ PkZ=1747.02835
.ends XGL6060-182_sat

*======================================================================
* SPICE Model generated by Coilcraft
* Coilcraft Part Number : XGL6060-222
* Inductance = 2.2uH
*======================================================================
* Model Parameters:
*   Valid Frequency Range = 0.1MHz-100MHz
*   Ambient Temperature = 25 degC
*   Inductor Frequency Model
*   Use model for Frequency Domain simulations
*======================================================================
.subckt XGL6060-222_freq port1 port2 PARAMS: Cpar=11.5pF Ind=2.2uH
X1 port1 port2 Model1A PARAMS:
+ R1=4
+ R2=0.0048
+ C= {Cpar}
+ K1=0.000001
+ K2=0.376
+ K3= {Ind}
+ K4=0.000001
+ K5=0.000001
+ L=2.0298E-06
+ Is=29.1488
+ a=0.86
+ L_Z0=0
+ L_EL=0
+ L_F0=0E6
+ PkZ=2025.35488
.ends XGL6060-222_freq

*======================================================================
* SPICE Model generated by Coilcraft
* Coilcraft Part Number : XGL6060-222
* Inductance = 2.2uH
*======================================================================
* Model Parameters:
*   Valid Frequency Range = 0.1MHz-100MHz
*   Ambient Temperature = 25 degC
*   Inductor Saturation Model
*   Use model for Time Domain simulations
*======================================================================
.subckt XGL6060-222_sat port1 port2 PARAMS: Cpar=11.5pF Ind=2.2uH
X1 port1 port2 Model1C PARAMS:
+ R1=4
+ R2=0.0048
+ C= {Cpar}
+ K1=0.000001
+ K2=0.376
+ K3= {Ind}
+ K4=0.000001
+ K5=0.000001
+ L=2.0298E-06
+ Is=29.1488
+ a=0.86
+ L_Z0=0
+ L_EL=0
+ L_F0=0E6
+ PkZ=2025.35488
.ends XGL6060-222_sat

*======================================================================
* SPICE Model generated by Coilcraft
* Coilcraft Part Number : XGL6060-332
* Inductance = 3.3uH
*======================================================================
* Model Parameters:
*   Valid Frequency Range = 0.1MHz-100MHz
*   Ambient Temperature = 25 degC
*   Inductor Frequency Model
*   Use model for Frequency Domain simulations
*======================================================================
.subckt XGL6060-332_freq port1 port2 PARAMS: Cpar=13.6pF Ind=3.3uH
X1 port1 port2 Model1A PARAMS:
+ R1=4
+ R2=0.0065
+ C= {Cpar}
+ K1=0.000001
+ K2=0.63
+ K3= {Ind}
+ K4=0.000001
+ K5=0.000001
+ L=2.9986E-06
+ Is=24.4495
+ a=0.8594
+ L_Z0=0
+ L_EL=0
+ L_F0=0E6
+ PkZ=2922.59491
.ends XGL6060-332_freq

*======================================================================
* SPICE Model generated by Coilcraft
* Coilcraft Part Number : XGL6060-332
* Inductance = 3.3uH
*======================================================================
* Model Parameters:
*   Valid Frequency Range = 0.1MHz-100MHz
*   Ambient Temperature = 25 degC
*   Inductor Saturation Model
*   Use model for Time Domain simulations
*======================================================================
.subckt XGL6060-332_sat port1 port2 PARAMS: Cpar=13.6pF Ind=3.3uH
X1 port1 port2 Model1C PARAMS:
+ R1=4
+ R2=0.0065
+ C= {Cpar}
+ K1=0.000001
+ K2=0.63
+ K3= {Ind}
+ K4=0.000001
+ K5=0.000001
+ L=2.9986E-06
+ Is=24.4495
+ a=0.8594
+ L_Z0=0
+ L_EL=0
+ L_F0=0E6
+ PkZ=2922.59491
.ends XGL6060-332_sat

*======================================================================
* SPICE Model generated by Coilcraft
* Coilcraft Part Number : XGL6060-472
* Inductance = 4.7uH
*======================================================================
* Model Parameters:
*   Valid Frequency Range = 0.1MHz-100MHz
*   Ambient Temperature = 25 degC
*   Inductor Frequency Model
*   Use model for Frequency Domain simulations
*======================================================================
.subckt XGL6060-472_freq port1 port2 PARAMS: Cpar=14pF Ind=4.7uH
X1 port1 port2 Model1A PARAMS:
+ R1=5
+ R2=0.0101
+ C= {Cpar}
+ K1=0.000001
+ K2=0.91
+ K3= {Ind}
+ K4=0.000001
+ K5=0.000001
+ L=4.4294E-06
+ Is=18.249
+ a=0.876
+ L_Z0=0
+ L_EL=0
+ L_F0=0E6
+ PkZ=3802.38863
.ends XGL6060-472_freq

*======================================================================
* SPICE Model generated by Coilcraft
* Coilcraft Part Number : XGL6060-472
* Inductance = 4.7uH
*======================================================================
* Model Parameters:
*   Valid Frequency Range = 0.1MHz-100MHz
*   Ambient Temperature = 25 degC
*   Inductor Saturation Model
*   Use model for Time Domain simulations
*======================================================================
.subckt XGL6060-472_sat port1 port2 PARAMS: Cpar=14pF Ind=4.7uH
X1 port1 port2 Model1C PARAMS:
+ R1=5
+ R2=0.0101
+ C= {Cpar}
+ K1=0.000001
+ K2=0.91
+ K3= {Ind}
+ K4=0.000001
+ K5=0.000001
+ L=4.4294E-06
+ Is=18.249
+ a=0.876
+ L_Z0=0
+ L_EL=0
+ L_F0=0E6
+ PkZ=3802.38863
.ends XGL6060-472_sat

*======================================================================
* SPICE Model generated by Coilcraft
* Coilcraft Part Number : XGL6060-562
* Inductance = 5.6uH
*======================================================================
* Model Parameters:
*   Valid Frequency Range = 0.1MHz-100MHz
*   Ambient Temperature = 25 degC
*   Inductor Frequency Model
*   Use model for Frequency Domain simulations
*======================================================================
.subckt XGL6060-562_freq port1 port2 PARAMS: Cpar=13.8pF Ind=5.6uH
X1 port1 port2 Model1A PARAMS:
+ R1=6
+ R2=0.0171
+ C= {Cpar}
+ K1=0.000001
+ K2=1.2
+ K3= {Ind}
+ K4=0.000001
+ K5=0.000001
+ L=5.4707E-06
+ Is=17.331
+ a=0.8631
+ L_Z0=0
+ L_EL=0
+ L_F0=0E6
+ PkZ=4747.32346
.ends XGL6060-562_freq

*======================================================================
* SPICE Model generated by Coilcraft
* Coilcraft Part Number : XGL6060-562
* Inductance = 5.6uH
*======================================================================
* Model Parameters:
*   Valid Frequency Range = 0.1MHz-100MHz
*   Ambient Temperature = 25 degC
*   Inductor Saturation Model
*   Use model for Time Domain simulations
*======================================================================
.subckt XGL6060-562_sat port1 port2 PARAMS: Cpar=13.8pF Ind=5.6uH
X1 port1 port2 Model1C PARAMS:
+ R1=6
+ R2=0.0171
+ C= {Cpar}
+ K1=0.000001
+ K2=1.2
+ K3= {Ind}
+ K4=0.000001
+ K5=0.000001
+ L=5.4707E-06
+ Is=17.331
+ a=0.8631
+ L_Z0=0
+ L_EL=0
+ L_F0=0E6
+ PkZ=4747.32346
.ends XGL6060-562_sat

*======================================================================
* SPICE Model generated by Coilcraft
* Coilcraft Part Number : XGL6060-682
* Inductance = 6.8uH
*======================================================================
* Model Parameters:
*   Valid Frequency Range = 0.1MHz-100MHz
*   Ambient Temperature = 25 degC
*   Inductor Frequency Model
*   Use model for Frequency Domain simulations
*======================================================================
.subckt XGL6060-682_freq port1 port2 PARAMS: Cpar=12.4pF Ind=6.8uH
X1 port1 port2 Model1A PARAMS:
+ R1=6
+ R2=0.014
+ C= {Cpar}
+ K1=0.000001
+ K2=1.34
+ K3= {Ind}
+ K4=0.000001
+ K5=0.000001
+ L=6.3771E-06
+ Is=16.086
+ a=0.8656
+ L_Z0=0
+ L_EL=0
+ L_F0=0E6
+ PkZ=5257.59292
.ends XGL6060-682_freq

*======================================================================
* SPICE Model generated by Coilcraft
* Coilcraft Part Number : XGL6060-682
* Inductance = 6.8uH
*======================================================================
* Model Parameters:
*   Valid Frequency Range = 0.1MHz-100MHz
*   Ambient Temperature = 25 degC
*   Inductor Saturation Model
*   Use model for Time Domain simulations
*======================================================================
.subckt XGL6060-682_sat port1 port2 PARAMS: Cpar=12.4pF Ind=6.8uH
X1 port1 port2 Model1C PARAMS:
+ R1=6
+ R2=0.014
+ C= {Cpar}
+ K1=0.000001
+ K2=1.34
+ K3= {Ind}
+ K4=0.000001
+ K5=0.000001
+ L=6.3771E-06
+ Is=16.086
+ a=0.8656
+ L_Z0=0
+ L_EL=0
+ L_F0=0E6
+ PkZ=5257.59292
.ends XGL6060-682_sat

*======================================================================
* SPICE Model generated by Coilcraft
* Coilcraft Part Number : XGL6060-822
* Inductance = 8.2uH
*======================================================================
* Model Parameters:
*   Valid Frequency Range = 0.1MHz-50MHz
*   Ambient Temperature = 25 degC
*   Inductor Frequency Model
*   Use model for Frequency Domain simulations
*======================================================================
.subckt XGL6060-822_freq port1 port2 PARAMS: Cpar=14.3pF Ind=8.2uH
X1 port1 port2 Model1A PARAMS:
+ R1=5
+ R2=0.0168
+ C= {Cpar}
+ K1=0.000001
+ K2=1.84
+ K3= {Ind}
+ K4=0.000001
+ K5=0.000001
+ L=7.583E-06
+ Is=14.4067
+ a=0.8769
+ L_Z0=0
+ L_EL=0
+ L_F0=0E6
+ PkZ=6645.07643
.ends XGL6060-822_freq

*======================================================================
* SPICE Model generated by Coilcraft
* Coilcraft Part Number : XGL6060-822
* Inductance = 8.2uH
*======================================================================
* Model Parameters:
*   Valid Frequency Range = 0.1MHz-50MHz
*   Ambient Temperature = 25 degC
*   Inductor Saturation Model
*   Use model for Time Domain simulations
*======================================================================
.subckt XGL6060-822_sat port1 port2 PARAMS: Cpar=14.3pF Ind=8.2uH
X1 port1 port2 Model1C PARAMS:
+ R1=5
+ R2=0.0168
+ C= {Cpar}
+ K1=0.000001
+ K2=1.84
+ K3= {Ind}
+ K4=0.000001
+ K5=0.000001
+ L=7.583E-06
+ Is=14.4067
+ a=0.8769
+ L_Z0=0
+ L_EL=0
+ L_F0=0E6
+ PkZ=6645.07643
.ends XGL6060-822_sat

*======================================================================
* SPICE Model generated by Coilcraft
* Coilcraft Part Number : XGL6060-103
* Inductance = 10uH
*======================================================================
* Model Parameters:
*   Valid Frequency Range = 0.1MHz-50MHz
*   Ambient Temperature = 25 degC
*   Inductor Frequency Model
*   Use model for Frequency Domain simulations
*======================================================================
.subckt XGL6060-103_freq port1 port2 PARAMS: Cpar=12.5pF Ind=10uH
X1 port1 port2 Model1A PARAMS:
+ R1=7
+ R2=0.0204
+ C= {Cpar}
+ K1=0.000001
+ K2=2.31
+ K3= {Ind}
+ K4=0.000001
+ K5=0.000001
+ L=9.285E-06
+ Is=13.2437
+ a=0.8569
+ L_Z0=0
+ L_EL=0
+ L_F0=0E6
+ PkZ=8097.72971
.ends XGL6060-103_freq

*======================================================================
* SPICE Model generated by Coilcraft
* Coilcraft Part Number : XGL6060-103
* Inductance = 10uH
*======================================================================
* Model Parameters:
*   Valid Frequency Range = 0.1MHz-50MHz
*   Ambient Temperature = 25 degC
*   Inductor Saturation Model
*   Use model for Time Domain simulations
*======================================================================
.subckt XGL6060-103_sat port1 port2 PARAMS: Cpar=12.5pF Ind=10uH
X1 port1 port2 Model1C PARAMS:
+ R1=7
+ R2=0.0204
+ C= {Cpar}
+ K1=0.000001
+ K2=2.31
+ K3= {Ind}
+ K4=0.000001
+ K5=0.000001
+ L=9.285E-06
+ Is=13.2437
+ a=0.8569
+ L_Z0=0
+ L_EL=0
+ L_F0=0E6
+ PkZ=8097.72971
.ends XGL6060-103_sat

*======================================================================
* SPICE Model generated by Coilcraft
* Coilcraft Part Number : XGL6060-123
* Inductance = 12uH
*======================================================================
* Model Parameters:
*   Valid Frequency Range = 0.1MHz-50MHz
*   Ambient Temperature = 25 degC
*   Inductor Frequency Model
*   Use model for Frequency Domain simulations
*======================================================================
.subckt XGL6060-123_freq port1 port2 PARAMS: Cpar=12.8pF Ind=12uH
X1 port1 port2 Model1A PARAMS:
+ R1=8
+ R2=0.0242
+ C= {Cpar}
+ K1=0.000001
+ K2=2.82
+ K3= {Ind}
+ K4=0.000001
+ K5=0.000001
+ L=1.0926E-05
+ Is=12.0125
+ a=0.8731
+ L_Z0=0
+ L_EL=0
+ L_F0=0E6
+ PkZ=9303.05984
.ends XGL6060-123_freq

*======================================================================
* SPICE Model generated by Coilcraft
* Coilcraft Part Number : XGL6060-123
* Inductance = 12uH
*======================================================================
* Model Parameters:
*   Valid Frequency Range = 0.1MHz-50MHz
*   Ambient Temperature = 25 degC
*   Inductor Saturation Model
*   Use model for Time Domain simulations
*======================================================================
.subckt XGL6060-123_sat port1 port2 PARAMS: Cpar=12.8pF Ind=12uH
X1 port1 port2 Model1C PARAMS:
+ R1=8
+ R2=0.0242
+ C= {Cpar}
+ K1=0.000001
+ K2=2.82
+ K3= {Ind}
+ K4=0.000001
+ K5=0.000001
+ L=1.0926E-05
+ Is=12.0125
+ a=0.8731
+ L_Z0=0
+ L_EL=0
+ L_F0=0E6
+ PkZ=9303.05984
.ends XGL6060-123_sat

*======================================================================
* SPICE Model generated by Coilcraft
* Coilcraft Part Number : XGL6060-153
* Inductance = 15uH
*======================================================================
* Model Parameters:
*   Valid Frequency Range = 0.1MHz-25MHz
*   Ambient Temperature = 25 degC
*   Inductor Frequency Model
*   Use model for Frequency Domain simulations
*======================================================================
.subckt XGL6060-153_freq port1 port2 PARAMS: Cpar=13.8pF Ind=15uH
X1 port1 port2 Model1A PARAMS:
+ R1=10
+ R2=0.0311
+ C= {Cpar}
+ K1=0.000001
+ K2=3.97
+ K3= {Ind}
+ K4=0.000001
+ K5=0.000001
+ L=1.4469E-05
+ Is=10.5187
+ a=0.8574
+ L_Z0=0
+ L_EL=0
+ L_F0=0E6
+ PkZ=11773.539
.ends XGL6060-153_freq

*======================================================================
* SPICE Model generated by Coilcraft
* Coilcraft Part Number : XGL6060-153
* Inductance = 15uH
*======================================================================
* Model Parameters:
*   Valid Frequency Range = 0.1MHz-25MHz
*   Ambient Temperature = 25 degC
*   Inductor Saturation Model
*   Use model for Time Domain simulations
*======================================================================
.subckt XGL6060-153_sat port1 port2 PARAMS: Cpar=13.8pF Ind=15uH
X1 port1 port2 Model1C PARAMS:
+ R1=10
+ R2=0.0311
+ C= {Cpar}
+ K1=0.000001
+ K2=3.97
+ K3= {Ind}
+ K4=0.000001
+ K5=0.000001
+ L=1.4469E-05
+ Is=10.5187
+ a=0.8574
+ L_Z0=0
+ L_EL=0
+ L_F0=0E6
+ PkZ=11773.539
.ends XGL6060-153_sat

*======================================================================
* SPICE Model generated by Coilcraft
* Coilcraft Part Number : XGL6060-183
* Inductance = 18uH
*======================================================================
* Model Parameters:
*   Valid Frequency Range = 0.1MHz-25MHz
*   Ambient Temperature = 25 degC
*   Inductor Frequency Model
*   Use model for Frequency Domain simulations
*======================================================================
.subckt XGL6060-183_freq port1 port2 PARAMS: Cpar=14pF Ind=18uH
X1 port1 port2 Model1A PARAMS:
+ R1=9
+ R2=0.0373
+ C= {Cpar}
+ K1=0.000001
+ K2=4.2
+ K3= {Ind}
+ K4=0.000001
+ K5=0.000001
+ L=1.7001E-05
+ Is=9.7477
+ a=0.8758
+ L_Z0=0
+ L_EL=0
+ L_F0=0E6
+ PkZ=12165.8791
.ends XGL6060-183_freq

*======================================================================
* SPICE Model generated by Coilcraft
* Coilcraft Part Number : XGL6060-183
* Inductance = 18uH
*======================================================================
* Model Parameters:
*   Valid Frequency Range = 0.1MHz-25MHz
*   Ambient Temperature = 25 degC
*   Inductor Saturation Model
*   Use model for Time Domain simulations
*======================================================================
.subckt XGL6060-183_sat port1 port2 PARAMS: Cpar=14pF Ind=18uH
X1 port1 port2 Model1C PARAMS:
+ R1=9
+ R2=0.0373
+ C= {Cpar}
+ K1=0.000001
+ K2=4.2
+ K3= {Ind}
+ K4=0.000001
+ K5=0.000001
+ L=1.7001E-05
+ Is=9.7477
+ a=0.8758
+ L_Z0=0
+ L_EL=0
+ L_F0=0E6
+ PkZ=12165.8791
.ends XGL6060-183_sat

*======================================================================
* SPICE Model generated by Coilcraft
* Coilcraft Part Number : XGL6060-223
* Inductance = 22uH
*======================================================================
* Model Parameters:
*   Valid Frequency Range = 0.1MHz-25MHz
*   Ambient Temperature = 25 degC
*   Inductor Frequency Model
*   Use model for Frequency Domain simulations
*======================================================================
.subckt XGL6060-223_freq port1 port2 PARAMS: Cpar=14pF Ind=22uH
X1 port1 port2 Model1A PARAMS:
+ R1=7
+ R2=0.0469
+ C= {Cpar}
+ K1=0.000001
+ K2=5.72
+ K3= {Ind}
+ K4=0.000001
+ K5=0.000001
+ L=2.105E-05
+ Is=9.1485
+ a=0.8627
+ L_Z0=0
+ L_EL=0
+ L_F0=0E6
+ PkZ=15997.423
.ends XGL6060-223_freq

*======================================================================
* SPICE Model generated by Coilcraft
* Coilcraft Part Number : XGL6060-223
* Inductance = 22uH
*======================================================================
* Model Parameters:
*   Valid Frequency Range = 0.1MHz-25MHz
*   Ambient Temperature = 25 degC
*   Inductor Saturation Model
*   Use model for Time Domain simulations
*======================================================================
.subckt XGL6060-223_sat port1 port2 PARAMS: Cpar=14pF Ind=22uH
X1 port1 port2 Model1C PARAMS:
+ R1=7
+ R2=0.0469
+ C= {Cpar}
+ K1=0.000001
+ K2=5.72
+ K3= {Ind}
+ K4=0.000001
+ K5=0.000001
+ L=2.105E-05
+ Is=9.1485
+ a=0.8627
+ L_Z0=0
+ L_EL=0
+ L_F0=0E6
+ PkZ=15997.423
.ends XGL6060-223_sat

*======================================================================
* SPICE Model generated by Coilcraft
* Coilcraft Part Number : XGL6060-333
* Inductance = 33uH
*======================================================================
* Model Parameters:
*   Valid Frequency Range = 0.1MHz-25MHz
*   Ambient Temperature = 25 degC
*   Inductor Frequency Model
*   Use model for Frequency Domain simulations
*======================================================================
.subckt XGL6060-333_freq port1 port2 PARAMS: Cpar=14.6pF Ind=33uH
X1 port1 port2 Model1A PARAMS:
+ R1=9
+ R2=0.0695
+ C= {Cpar}
+ K1=0.000001
+ K2=8.33
+ K3= {Ind}
+ K4=0.000001
+ K5=0.000001
+ L=3.2371E-05
+ Is=7.1612
+ a=0.8675
+ L_Z0=0
+ L_EL=0
+ L_F0=0E6
+ PkZ=20590.9935
.ends XGL6060-333_freq
