Version 4.1
SHEET 1 1292 1044
WIRE 112 -192 -112 -192
WIRE 288 -192 192 -192
WIRE -512 -96 -704 -96
WIRE -208 -96 -512 -96
WIRE -112 -96 -112 -192
WIRE 112 -96 -112 -96
WIRE 288 -96 288 -192
WIRE 288 -96 192 -96
WIRE 1024 -16 976 -16
WIRE 1152 -16 1024 -16
WIRE -208 0 -208 -96
WIRE -208 0 -320 0
WIRE -112 0 -112 -96
WIRE -112 0 -208 0
WIRE 112 0 -112 0
WIRE 288 0 288 -96
WIRE 288 0 176 0
WIRE 624 0 288 0
WIRE 768 0 624 0
WIRE 896 0 896 -16
WIRE 896 0 768 0
WIRE -240 32 -256 32
WIRE 768 32 768 0
WIRE 624 48 624 0
WIRE 1024 48 1024 -16
WIRE -240 64 -240 32
WIRE -240 64 -320 64
WIRE 144 64 96 64
WIRE -320 96 -320 64
WIRE -240 96 -240 64
WIRE 144 128 144 64
WIRE -32 144 -64 144
WIRE 112 144 48 144
WIRE 288 160 288 0
WIRE 288 160 176 160
WIRE 624 160 624 112
WIRE 624 160 400 160
WIRE 768 160 768 112
WIRE 768 160 624 160
WIRE 1024 160 1024 112
WIRE -240 176 -240 160
WIRE -240 176 -320 176
WIRE 112 176 -64 176
WIRE -704 192 -704 -96
WIRE -240 224 -240 176
WIRE 144 224 144 192
WIRE 144 224 80 224
WIRE 768 224 768 160
WIRE 624 240 624 160
WIRE -512 256 -512 -96
WIRE -64 288 -64 176
WIRE 400 288 400 160
WIRE 400 288 -64 288
WIRE -240 304 -256 304
WIRE 624 384 624 304
WIRE 624 384 384 384
WIRE 768 384 768 304
WIRE 768 384 624 384
WIRE 896 384 768 384
WIRE 1024 384 976 384
WIRE 1152 384 1024 384
WIRE -240 400 -240 304
WIRE -240 400 -320 400
WIRE 1024 464 1024 384
WIRE -240 480 -240 464
WIRE -240 480 -320 480
WIRE 144 480 96 480
WIRE -240 544 -240 480
WIRE 144 544 144 480
WIRE -112 560 -112 0
WIRE 112 560 -112 560
WIRE 384 576 384 384
WIRE 384 576 176 576
WIRE 1024 576 1024 528
WIRE 112 592 16 592
WIRE -176 608 -336 608
WIRE 16 608 16 592
WIRE 16 608 -176 608
WIRE 144 640 144 608
WIRE 144 640 96 640
WIRE -704 688 -704 272
WIRE -512 688 -512 320
WIRE -512 688 -704 688
WIRE -176 688 -176 608
WIRE -176 688 -512 688
WIRE 16 768 16 608
WIRE 80 768 16 768
WIRE 384 768 384 576
WIRE 384 768 144 768
WIRE 16 880 16 768
WIRE 80 880 16 880
WIRE 384 880 384 768
WIRE 384 880 160 880
WIRE 16 976 16 880
WIRE 80 976 16 976
WIRE 384 976 384 880
WIRE 384 976 160 976
FLAG -64 144 0
FLAG -320 0 DAC
IOPIN -320 0 In
FLAG -336 608 DACb
IOPIN -336 608 In
FLAG 1024 576 0
FLAG 1024 160 0
FLAG 1152 -16 OUTb
IOPIN 1152 -16 Out
FLAG 1152 384 OUT
IOPIN 1152 384 Out
FLAG 96 64 +18V
IOPIN 96 64 In
FLAG 96 480 +18V
IOPIN 96 480 In
FLAG 80 224 -18V
IOPIN 80 224 In
FLAG 96 640 -18V
IOPIN 96 640 In
FLAG -240 544 0
FLAG -240 224 0
FLAG -256 32 +18V
IOPIN -256 32 In
FLAG -256 304 -18V
IOPIN -256 304 In
SYMBOL cap 112 16 R270
WINDOW 0 32 32 VTop 2
WINDOW 3 0 32 VBottom 2
SYMATTR InstName C1
SYMATTR Value 510p
SYMATTR SpiceLine V=50 Irms=0 Rser=0 Lser=0 mfg="Murata" pn="GCM1555C1H511JA16" type="C0G"
SYMBOL res 96 -176 R270
WINDOW 0 32 56 VTop 2
WINDOW 3 0 56 VBottom 2
SYMATTR InstName R1
SYMATTR Value 3600
SYMBOL res 208 -112 R90
WINDOW 0 0 56 VBottom 2
WINDOW 3 32 56 VTop 2
SYMATTR InstName R2
SYMATTR Value 3600
SYMBOL res 176 960 R90
WINDOW 0 0 56 VBottom 2
WINDOW 3 32 56 VTop 2
SYMATTR InstName R3
SYMATTR Value 3600
SYMBOL res 176 864 R90
WINDOW 0 0 56 VBottom 2
WINDOW 3 32 56 VTop 2
SYMATTR InstName R4
SYMATTR Value 3600
SYMBOL cap 80 784 R270
WINDOW 0 32 32 VTop 2
WINDOW 3 0 32 VBottom 2
SYMATTR InstName C2
SYMATTR Value 510p
SYMATTR SpiceLine V=50 Irms=0 Rser=0 Lser=0 mfg="Murata" pn="GCM1555C1H511JA16" type="C0G"
SYMBOL cap 608 48 R0
SYMATTR InstName C3
SYMATTR Value 10p
SYMATTR SpiceLine V=50 Irms=0 Rser=0 Lser=0 mfg="Murata" pn="GCM0335C1H100JA16" type="C0G"
SYMBOL res 752 16 R0
SYMATTR InstName R5
SYMATTR Value 4700
SYMBOL res 752 208 R0
SYMATTR InstName R6
SYMATTR Value 4700
SYMBOL res 992 368 R90
WINDOW 0 0 56 VBottom 2
WINDOW 3 32 56 VTop 2
SYMATTR InstName R7
SYMATTR Value 140
SYMBOL res 992 -32 R90
WINDOW 0 0 56 VBottom 2
WINDOW 3 32 56 VTop 2
SYMATTR InstName R8
SYMATTR Value 140
SYMBOL cap 1008 464 R0
SYMATTR InstName C4
SYMATTR Value 0.0022µ
SYMATTR SpiceLine V=50 Irms=0 Rser=0 Lser=0 mfg="Murata" pn="GCM1885C1H222JA16" type="C0G"
SYMBOL cap 1008 48 R0
SYMATTR InstName C5
SYMATTR Value 0.0022µ
SYMATTR SpiceLine V=50 Irms=0 Rser=0 Lser=0 mfg="Murata" pn="GCM1885C1H222JA16" type="C0G"
SYMBOL cap -256 96 R0
SYMATTR InstName C6
SYMATTR Value 0.47µ
SYMATTR SpiceLine V=50 Irms=0 Rser=0 Lser=0 mfg="Murata" pn="GCM21BR71H474KA55" type="X7R"
SYMBOL cap -256 400 R0
SYMATTR InstName C7
SYMATTR Value 0.47µ
SYMATTR SpiceLine V=50 Irms=0 Rser=0 Lser=0 mfg="Murata" pn="GCM21BR71H474KA55" type="X7R"
SYMBOL voltage -320 80 R0
WINDOW 123 0 0 Left 0
WINDOW 39 0 0 Left 0
SYMATTR InstName V1
SYMATTR Value 18
SYMBOL voltage -320 384 R0
WINDOW 123 0 0 Left 0
WINDOW 39 0 0 Left 0
SYMATTR InstName V2
SYMATTR Value -18
SYMBOL voltage -704 176 R0
WINDOW 3 24 44 Left 2
WINDOW 123 24 72 Left 2
WINDOW 39 0 0 Left 0
SYMATTR Value 0.2
SYMATTR Value2 AC 2
SYMATTR InstName V3
SYMBOL res 64 128 R90
WINDOW 0 0 56 VBottom 2
WINDOW 3 32 56 VTop 2
SYMATTR InstName R9
SYMATTR Value 100k
SYMBOL OpAmps\\opamp2 144 96 R0
SYMATTR InstName U1
SYMATTR Value OPA161x
SYMBOL OpAmps\\opamp2 144 512 R0
SYMATTR InstName U2
SYMATTR Value OPA161x
TEXT -792 -152 Left 2 !.ac oct 1000 30 2000
TEXT -792 -216 Left 2 ;.dc V3 0.2 3.1 0.01
TEXT 656 -408 Left 2 !.inc OPA161x.LIB
