Version 4.1
SHEET 1 3456 1044
WIRE 1888 -288 1872 -288
WIRE 2160 -272 2144 -272
WIRE 1888 -224 1888 -288
WIRE 112 -192 -112 -192
WIRE 288 -192 192 -192
WIRE 2160 -176 2160 -272
WIRE -512 -96 -704 -96
WIRE -208 -96 -512 -96
WIRE -112 -96 -112 -192
WIRE 112 -96 -112 -96
WIRE 288 -96 288 -192
WIRE 288 -96 192 -96
WIRE 1888 -96 1888 -160
WIRE 1552 -64 1136 -64
WIRE 1680 -64 1552 -64
WIRE 2160 -32 2160 -112
WIRE 1024 -16 976 -16
WIRE 1136 -16 1136 -64
WIRE 1136 -16 1024 -16
WIRE 1152 -16 1136 -16
WIRE -208 0 -208 -96
WIRE -208 0 -320 0
WIRE -112 0 -112 -96
WIRE -112 0 -208 0
WIRE 112 0 -112 0
WIRE 288 0 288 -96
WIRE 288 0 176 0
WIRE 624 0 288 0
WIRE 768 0 624 0
WIRE 896 0 896 -16
WIRE 896 0 768 0
WIRE 1680 16 1680 -64
WIRE 1776 16 1760 16
WIRE 1888 16 1776 16
WIRE 2000 16 1968 16
WIRE -240 32 -256 32
WIRE 768 32 768 0
WIRE 624 48 624 0
WIRE 1024 48 1024 -16
WIRE -240 64 -240 32
WIRE -240 64 -320 64
WIRE 144 64 96 64
WIRE -320 96 -320 64
WIRE -240 96 -240 64
WIRE -704 112 -704 -96
WIRE 2000 112 2000 16
WIRE 2064 112 2000 112
WIRE 144 128 144 64
WIRE 112 144 -64 144
WIRE 288 160 288 0
WIRE 288 160 176 160
WIRE 624 160 624 112
WIRE 624 160 400 160
WIRE 768 160 768 112
WIRE 768 160 624 160
WIRE 1024 160 1024 112
WIRE -240 176 -240 160
WIRE -240 176 -320 176
WIRE 112 176 80 176
WIRE 1840 176 1840 144
WIRE 1776 192 1776 16
WIRE 1808 192 1776 192
WIRE 2000 208 2000 112
WIRE 2000 208 1872 208
WIRE 2064 208 2064 112
WIRE -240 224 -240 176
WIRE 144 224 144 192
WIRE 144 224 80 224
WIRE 768 224 768 160
WIRE 1472 224 1136 224
WIRE 1664 224 1472 224
WIRE 1760 224 1744 224
WIRE 1808 224 1760 224
WIRE 624 240 624 160
WIRE 2576 240 2192 240
WIRE -512 256 -512 -96
WIRE 1760 256 1760 224
WIRE 1840 272 1840 240
WIRE 2576 272 2576 240
WIRE -64 288 -64 144
WIRE 400 288 400 160
WIRE 400 288 -64 288
WIRE -240 304 -256 304
WIRE 1760 352 1760 336
WIRE 2064 352 2064 288
WIRE 2192 352 2192 240
WIRE 2192 352 2064 352
WIRE 2240 352 2192 352
WIRE 624 384 624 304
WIRE 624 384 384 384
WIRE 768 384 768 304
WIRE 768 384 624 384
WIRE 896 384 768 384
WIRE 1024 384 976 384
WIRE 1136 384 1136 224
WIRE 1136 384 1024 384
WIRE 1152 384 1136 384
WIRE -240 400 -240 304
WIRE -240 400 -320 400
WIRE 2064 400 2064 352
WIRE 1552 416 1552 -64
WIRE 1664 416 1552 416
WIRE 1760 416 1744 416
WIRE 1872 416 1760 416
WIRE 1984 416 1952 416
WIRE 1024 464 1024 384
WIRE 2576 464 2576 352
WIRE -240 480 -240 464
WIRE -240 480 -320 480
WIRE 144 480 96 480
WIRE -704 496 -896 496
WIRE -896 512 -896 496
WIRE 1984 512 1984 416
WIRE 2064 512 2064 480
WIRE 2064 512 1984 512
WIRE -240 544 -240 480
WIRE 144 544 144 480
WIRE 112 560 16 560
WIRE 384 576 384 384
WIRE 384 576 176 576
WIRE 1024 576 1024 528
WIRE 1824 576 1824 544
WIRE -112 592 -112 0
WIRE 112 592 -112 592
WIRE 1760 592 1760 416
WIRE 1792 592 1760 592
WIRE -176 608 -336 608
WIRE 16 608 16 560
WIRE 16 608 -176 608
WIRE 1984 608 1984 512
WIRE 1984 608 1856 608
WIRE 1472 624 1472 224
WIRE 1648 624 1472 624
WIRE 1744 624 1728 624
WIRE 1792 624 1744 624
WIRE 144 640 144 608
WIRE 144 640 96 640
WIRE 1744 656 1744 624
WIRE 1824 672 1824 640
WIRE -704 688 -704 496
WIRE -512 688 -512 320
WIRE -512 688 -704 688
WIRE -176 688 -176 608
WIRE -176 688 -512 688
WIRE 1744 752 1744 736
WIRE 16 768 16 608
WIRE 80 768 16 768
WIRE 384 768 384 576
WIRE 384 768 144 768
WIRE 16 880 16 768
WIRE 80 880 16 880
WIRE 384 880 384 768
WIRE 384 880 160 880
WIRE 16 976 16 880
WIRE 80 976 16 976
WIRE 384 976 384 880
WIRE 384 976 160 976
FLAG 80 176 0
FLAG -320 0 DAC
IOPIN -320 0 In
FLAG -336 608 DACb
IOPIN -336 608 In
FLAG 1024 576 0
FLAG 1024 160 0
FLAG 1152 -16 preamp_OUTb
IOPIN 1152 -16 Out
FLAG 1152 384 preamp_OUT
IOPIN 1152 384 Out
FLAG 96 64 +18V
IOPIN 96 64 In
FLAG 96 480 +18V
IOPIN 96 480 In
FLAG 80 224 -18V
IOPIN 80 224 In
FLAG 96 640 -18V
IOPIN 96 640 In
FLAG -240 544 0
FLAG -240 224 0
FLAG -256 32 +18V
IOPIN -256 32 In
FLAG -256 304 -18V
IOPIN -256 304 In
FLAG 1888 -96 0
FLAG 1872 -288 +18V
IOPIN 1872 -288 In
FLAG 2160 -32 0
FLAG 2144 -272 -18V
IOPIN 2144 -272 In
FLAG 1840 144 +18V
IOPIN 1840 144 In
FLAG 1840 272 -18V
IOPIN 1840 272 In
FLAG 1760 352 0
FLAG 1824 544 +18V
IOPIN 1824 544 In
FLAG 1824 672 -18V
IOPIN 1824 672 In
FLAG 1744 752 0
FLAG 2240 352 OUT
IOPIN 2240 352 Out
FLAG 2576 464 0
FLAG -896 672 0
FLAG -704 272 0
SYMBOL cap 112 16 R270
WINDOW 0 32 32 VTop 2
WINDOW 3 0 32 VBottom 2
SYMATTR InstName C1
SYMATTR Value 510p
SYMATTR SpiceLine V=50 Irms=0 Rser=0 Lser=0 mfg="Murata" pn="GCM1555C1H511JA16" type="C0G"
SYMBOL res 96 -176 R270
WINDOW 0 32 56 VTop 2
WINDOW 3 0 56 VBottom 2
SYMATTR InstName R1
SYMATTR Value 3600
SYMBOL res 208 -112 R90
WINDOW 0 0 56 VBottom 2
WINDOW 3 32 56 VTop 2
SYMATTR InstName R2
SYMATTR Value 3600
SYMBOL res 176 960 R90
WINDOW 0 0 56 VBottom 2
WINDOW 3 32 56 VTop 2
SYMATTR InstName R3
SYMATTR Value 3600
SYMBOL res 176 864 R90
WINDOW 0 0 56 VBottom 2
WINDOW 3 32 56 VTop 2
SYMATTR InstName R4
SYMATTR Value 3600
SYMBOL cap 80 784 R270
WINDOW 0 32 32 VTop 2
WINDOW 3 0 32 VBottom 2
SYMATTR InstName C2
SYMATTR Value 510p
SYMATTR SpiceLine V=50 Irms=0 Rser=0 Lser=0 mfg="Murata" pn="GCM1555C1H511JA16" type="C0G"
SYMBOL cap 608 48 R0
SYMATTR InstName C3
SYMATTR Value 10p
SYMATTR SpiceLine V=50 Irms=0 Rser=0 Lser=0 mfg="Murata" pn="GCM0335C1H100JA16" type="C0G"
SYMBOL res 752 16 R0
SYMATTR InstName R5
SYMATTR Value 4700
SYMBOL res 752 208 R0
SYMATTR InstName R6
SYMATTR Value 4700
SYMBOL res 992 368 R90
WINDOW 0 0 56 VBottom 2
WINDOW 3 32 56 VTop 2
SYMATTR InstName R7
SYMATTR Value 140
SYMBOL res 992 -32 R90
WINDOW 0 0 56 VBottom 2
WINDOW 3 32 56 VTop 2
SYMATTR InstName R8
SYMATTR Value 140
SYMBOL cap 1008 464 R0
SYMATTR InstName C4
SYMATTR Value 0.0022µ
SYMATTR SpiceLine V=50 Irms=0 Rser=0 Lser=0 mfg="Murata" pn="GCM1885C1H222JA16" type="C0G"
SYMBOL cap 1008 48 R0
SYMATTR InstName C5
SYMATTR Value 0.0022µ
SYMATTR SpiceLine V=50 Irms=0 Rser=0 Lser=0 mfg="Murata" pn="GCM1885C1H222JA16" type="C0G"
SYMBOL cap -256 96 R0
SYMATTR InstName C6
SYMATTR Value 0.47µ
SYMATTR SpiceLine V=50 Irms=0 Rser=0 Lser=0 mfg="Murata" pn="GCM21BR71H474KA55" type="X7R"
SYMBOL cap -256 400 R0
SYMATTR InstName C7
SYMATTR Value 0.47µ
SYMATTR SpiceLine V=50 Irms=0 Rser=0 Lser=0 mfg="Murata" pn="GCM21BR71H474KA55" type="X7R"
SYMBOL voltage -320 80 R0
WINDOW 123 0 0 Left 0
WINDOW 39 0 0 Left 0
SYMATTR InstName V1
SYMATTR Value 17.5
SYMBOL voltage -320 384 R0
WINDOW 123 0 0 Left 0
WINDOW 39 0 0 Left 0
SYMATTR InstName V2
SYMATTR Value -17.5
SYMBOL voltage -704 176 R0
WINDOW 3 24 44 Left 2
WINDOW 123 24 72 Left 2
WINDOW 39 0 0 Left 0
SYMATTR Value 0
SYMATTR Value2 AC 0.725 0
SYMATTR InstName V3
SYMBOL OpAmps\\opamp2 144 96 R0
SYMATTR InstName U1
SYMATTR Value OPA161x
SYMBOL OpAmps\\opamp2 144 512 R0
SYMATTR InstName U2
SYMATTR Value OPA161x
SYMBOL OpAmps\\opamp2 1840 144 R0
SYMATTR InstName U3
SYMATTR Value OPA1656
SYMBOL cap 608 240 R0
SYMATTR InstName C8
SYMATTR Value 10p
SYMATTR SpiceLine V=50 Irms=0 Rser=0 Lser=0 mfg="Murata" pn="GCM0335C1H100JA16" type="C0G"
SYMBOL cap 1872 -224 R0
SYMATTR InstName C9
SYMATTR Value 0.1µ
SYMATTR SpiceLine V=50 Irms=0 Rser=0 Lser=0 mfg="Murata" pn="GCM21BR71H474KA55" type="X7R"
SYMBOL cap 2144 -176 R0
SYMATTR InstName C10
SYMATTR Value 0.1µ
SYMATTR SpiceLine V=25 Irms=0 Rser=0 Lser=0 mfg="Murata" pn="GCM155R71E104KE02" type="X7R"
SYMBOL res 1984 0 R90
WINDOW 0 0 56 VBottom 2
WINDOW 3 32 56 VTop 2
SYMATTR InstName R10
SYMATTR Value 500
SYMBOL res 1776 0 R90
WINDOW 0 0 56 VBottom 2
WINDOW 3 32 56 VTop 2
SYMATTR InstName R11
SYMATTR Value 500
SYMBOL res 1760 208 R90
WINDOW 0 0 56 VBottom 2
WINDOW 3 32 56 VTop 2
SYMATTR InstName R12
SYMATTR Value 500
SYMBOL res 1744 240 R0
SYMATTR InstName R13
SYMATTR Value 100k
SYMBOL OpAmps\\opamp2 1824 544 R0
SYMATTR InstName U5
SYMATTR Value OPA1656
SYMBOL res 1968 400 R90
WINDOW 0 0 56 VBottom 2
WINDOW 3 32 56 VTop 2
SYMATTR InstName R14
SYMATTR Value 500
SYMBOL res 1760 400 R90
WINDOW 0 0 56 VBottom 2
WINDOW 3 32 56 VTop 2
SYMATTR InstName R15
SYMATTR Value 500
SYMBOL res 1744 608 R90
WINDOW 0 0 56 VBottom 2
WINDOW 3 32 56 VTop 2
SYMATTR InstName R16
SYMATTR Value 500
SYMBOL res 1728 640 R0
SYMATTR InstName R17
SYMATTR Value 100k
SYMBOL res 2048 192 R0
SYMATTR InstName R18
SYMATTR Value 3
SYMBOL res 2048 384 R0
SYMATTR InstName R19
SYMATTR Value 3
SYMBOL res 2560 256 R0
SYMATTR InstName R20
SYMATTR Value 32
SYMBOL cap -528 256 R0
SYMATTR InstName C11
SYMATTR Value 10µ
SYMBOL res -720 96 R0
SYMATTR InstName R9
SYMATTR Value 1
SYMBOL res -912 496 R0
SYMATTR InstName R21
SYMATTR Value 1
SYMBOL voltage -896 576 R0
WINDOW 3 24 44 Left 2
WINDOW 123 24 72 Left 2
WINDOW 39 0 0 Left 0
SYMATTR Value 0
SYMATTR Value2 AC -0.725 0
SYMATTR InstName V6
TEXT -792 -152 Left 2 ;.ac oct 1000 30 2000
TEXT -792 -216 Left 2 ;.dc V3 0.2 3.1 0.01
TEXT 8 -360 Left 2 !.lib C:\\Users\\nroth\\Documents\\LTspice\\lib\\sub\\OPA161x.LIB
TEXT 656 328 Left 2 ;TODO: Adjust
TEXT 168 224 Left 2 ;OPA1612
TEXT 168 640 Left 2 ;OPA1612
TEXT 1824 -424 Left 2 ;.lib C:\\Users\\nroth\\Documents\\LTspice\\lib\\sub\\OPA1656.LIB
TEXT 2680 320 Left 2 ;Load
TEXT -816 -352 Left 2 !.tran 0 1s 0 0.01u
TEXT -496 336 Left 2 ;TODO: Adjust
