Version 4.1
SHEET 1 2340 1092
WIRE 1792 16 1568 16
WIRE 1568 48 1568 16
WIRE 1376 96 1264 96
WIRE 1424 96 1376 96
WIRE 1792 96 1712 96
WIRE 1888 96 1792 96
WIRE 1984 96 1952 96
WIRE 2096 96 1984 96
WIRE 2176 96 2096 96
WIRE 1264 112 1264 96
WIRE 1984 112 1984 96
WIRE 2096 112 2096 96
WIRE 2176 112 2176 96
WIRE 1264 208 1264 192
WIRE 1376 208 1376 96
WIRE 1424 208 1376 208
WIRE 1984 208 1984 192
WIRE 1984 208 1712 208
WIRE 2096 208 2096 176
WIRE 2176 208 2176 192
WIRE 1984 224 1984 208
WIRE 1376 272 1376 208
WIRE 1376 320 1376 272
WIRE 1376 320 1328 320
WIRE 1424 320 1376 320
WIRE 1744 320 1712 320
WIRE 1824 320 1808 320
WIRE 1936 320 1904 320
WIRE 1984 320 1984 304
WIRE 1328 432 1328 320
WIRE 1424 432 1328 432
WIRE 1760 432 1712 432
WIRE 1840 432 1760 432
WIRE 1968 432 1904 432
WIRE 2080 432 1968 432
WIRE 2160 432 2080 432
WIRE 1760 448 1760 432
WIRE 2080 448 2080 432
WIRE 2160 448 2160 432
WIRE 1328 544 1328 432
WIRE 1424 544 1328 544
WIRE 1760 544 1760 528
WIRE 1968 544 1968 432
WIRE 2080 544 2080 512
WIRE 2160 544 2160 528
WIRE 1424 656 1408 656
WIRE 1968 656 1968 624
WIRE 1968 656 1712 656
WIRE 1968 672 1968 656
WIRE 1968 768 1968 752
WIRE 1968 768 1712 768
WIRE 1968 800 1968 768
WIRE 1408 880 1408 656
WIRE 1424 880 1408 880
WIRE 1744 880 1712 880
WIRE 1824 880 1808 880
WIRE 1920 880 1904 880
WIRE 1968 880 1968 864
WIRE 1424 992 1376 992
WIRE 1760 992 1712 992
WIRE 1408 1056 1408 880
WIRE 1568 1056 1568 1040
WIRE 1568 1056 1408 1056
FLAG 1264 208 0
FLAG 1264 96 IN
FLAG 1312 272 0
FLAG 1344 656 0
FLAG 1376 992 0
FLAG 2176 96 OUT1
FLAG 2080 544 0
FLAG 2160 544 0
FLAG 2160 432 OUT2
FLAG 1760 544 0
FLAG 1968 880 0
FLAG 1920 880 0
FLAG 1760 992 0
FLAG 1936 320 0
FLAG 1984 320 0
FLAG 2176 208 0
FLAG 2096 208 0
SYMBOL PowerProducts\\ADP5071 1568 544 R0
SYMATTR InstName U1
SYMBOL VOLTAGE 1264 96 R0
SYMATTR InstName V2
SYMATTR Value 5
SYMBOL cap 1376 256 R90
WINDOW 0 0 32 VBottom 2
WINDOW 3 32 32 VTop 2
SYMATTR InstName C8
SYMATTR Value 10µ
SYMBOL cap 1408 640 R90
WINDOW 0 0 32 VBottom 2
WINDOW 3 32 32 VTop 2
SYMATTR InstName C9
SYMATTR Value 1µ
SYMBOL ind 1776 0 R0
WINDOW 0 42 41 Left 2
WINDOW 3 39 68 Left 2
SYMATTR InstName L3
SYMATTR Value 8.2µ
SYMATTR SpiceLine Rser=62m
SYMBOL schottky 1888 112 R270
WINDOW 0 32 32 VTop 2
WINDOW 3 0 32 VBottom 2
SYMATTR InstName D1
SYMBOL res 1968 208 R0
SYMATTR InstName R7
SYMATTR Value 120k
SYMBOL res 1968 96 R0
SYMATTR InstName R8
SYMATTR Value 2.5Meg
SYMBOL cap 2080 112 R0
SYMATTR InstName C10
SYMATTR Value 10µ
SYMBOL res 2160 96 R0
SYMATTR InstName Rload3
SYMATTR Value 110
SYMBOL res 1808 336 R270
WINDOW 0 32 56 VTop 2
WINDOW 3 0 56 VBottom 2
SYMATTR InstName R9
SYMATTR Value 20k
SYMBOL cap 1744 304 M90
WINDOW 0 0 32 VBottom 2
WINDOW 3 32 32 VTop 2
SYMATTR InstName C11
SYMATTR Value 2n
SYMBOL res 1952 656 R0
SYMATTR InstName R10
SYMATTR Value 130k
SYMBOL res 1952 528 R0
SYMATTR InstName R11
SYMATTR Value 3Meg
SYMBOL ind 1744 432 R0
SYMATTR InstName L4
SYMATTR Value 6.8µ
SYMATTR SpiceLine Rser=67.4m
SYMBOL cap 2064 448 R0
SYMATTR InstName C12
SYMATTR Value 10µ
SYMBOL res 2144 432 R0
SYMATTR InstName Rload4
SYMATTR Value 110
SYMBOL schottky 1904 416 R90
WINDOW 0 0 32 VBottom 2
WINDOW 3 32 32 VTop 2
SYMATTR InstName D2
SYMBOL cap 1952 800 R0
SYMATTR InstName C13
SYMATTR Value 1µ
SYMBOL res 1808 896 R270
WINDOW 0 32 56 VTop 2
WINDOW 3 0 56 VBottom 2
SYMATTR InstName R12
SYMATTR Value 43k
SYMBOL cap 1744 864 M90
WINDOW 0 0 32 VBottom 2
WINDOW 3 32 32 VTop 2
SYMATTR InstName C14
SYMATTR Value 1n
TEXT 736 864 Left 2 !.tran 0 200m 0 startup
TEXT 1256 -80 Left 2 !.MODEL DI_DFLS240L D  ( IS=516n RS=31.4m BV=40.0 IBV=500u\n+ CJO=292p  M=0.333 N=0.911 TT=7.20n )
TEXT 1816 16 Left 2 ;XAL4040-822ME
TEXT 1856 144 Left 2 ;DFLS240
TEXT 2056 64 Left 2 ;GRM32ER71H106KA12L
TEXT 1728 576 Left 2 ;XAL4030-682ME
TEXT 1832 480 Left 2 ;DFLS240
TEXT 2040 576 Left 2 ;GRM32ER71H106KA12L
