Version 4.1
SHEET 1 880 1024
WIRE 112 -192 -112 -192
WIRE 288 -192 192 -192
WIRE -112 -96 -112 -192
WIRE 112 -96 -112 -96
WIRE 288 -96 288 -192
WIRE 288 -96 192 -96
WIRE -112 0 -112 -96
WIRE 112 0 -112 0
WIRE 288 0 288 -96
WIRE 288 0 176 0
WIRE 112 144 -16 144
WIRE 288 160 288 0
WIRE 288 160 176 160
WIRE -112 560 -112 0
WIRE 112 560 -112 560
WIRE 384 576 176 576
WIRE 112 592 16 592
WIRE 16 768 16 592
WIRE 80 768 16 768
WIRE 384 768 384 576
WIRE 384 768 144 768
WIRE 16 880 16 768
WIRE 80 880 16 880
WIRE 384 880 384 768
WIRE 384 880 160 880
WIRE 16 976 16 880
WIRE 80 976 16 976
WIRE 384 976 384 880
WIRE 384 976 160 976
FLAG -16 144 0
FLAG -320 0 DAC
IOPIN -320 0 In
FLAG -336 608 DACb
IOPIN -336 608 In
SYMBOL OPA161x 144 96 R0
SYMATTR InstName U1
SYMBOL cap 112 16 R270
WINDOW 0 32 32 VTop 2
WINDOW 3 0 32 VBottom 2
SYMATTR InstName C1
SYMATTR Value 510p
SYMATTR SpiceLine V=50 Irms=0 Rser=0 Lser=0 mfg="Murata" pn="GCM1555C1H511JA16" type="C0G"
SYMBOL res 96 -176 R270
WINDOW 0 32 56 VTop 2
WINDOW 3 0 56 VBottom 2
SYMATTR InstName R1
SYMATTR Value 3600
SYMBOL res 208 -112 R90
WINDOW 0 0 56 VBottom 2
WINDOW 3 32 56 VTop 2
SYMATTR InstName R2
SYMATTR Value 3600
SYMBOL OPA161x 144 512 R0
SYMATTR InstName U2
SYMBOL res 176 960 R90
WINDOW 0 0 56 VBottom 2
WINDOW 3 32 56 VTop 2
SYMATTR InstName R3
SYMBOL res 176 864 R90
WINDOW 0 0 56 VBottom 2
WINDOW 3 32 56 VTop 2
SYMATTR InstName R4
SYMBOL cap 80 784 R270
WINDOW 0 32 32 VTop 2
WINDOW 3 0 32 VBottom 2
SYMATTR InstName C2
SYMATTR Value 510p
SYMATTR SpiceLine V=50 Irms=0 Rser=0 Lser=0 mfg="Murata" pn="GCM1555C1H511JA16" type="C0G"
SYMBOL cap 608 48 R0
SYMATTR InstName C3
SYMATTR Value 10p
SYMATTR SpiceLine V=50 Irms=0 Rser=0 Lser=0 mfg="Murata" pn="GCM0335C1H100JA16" type="C0G"
